 INFO
nunit      1    1    1
unit   cell
celltype   primcell
shape   parapipedal
 END_INFO
 DIM-GROUP
           3           9
 PRIMVEC
   12.3049000000    0.0000000000    0.0000000000
   -6.1524500000   10.6563559910    0.0000000000
    0.0000000000    0.0000000000   14.0000000000
 CONVVEC
   12.3049000000    0.0000000000    0.0000000000
   -6.1524500000   10.6563559910    0.0000000000
    0.0000000000    0.0000000000   14.0000000000
 PRIMCOORD
          52           1
  6      1.2305023050     0.7104379410     6.9999720000
  6      0.0000123050     1.4208545700     6.9999720000
  6     -0.0025409620     2.8416984830     7.0163100000
  6     -1.2304838470     3.5521364240     6.9999720000
  6     -1.2320465700     4.9710941630     7.0172900000
  6     -2.4609800000     5.6834182790     6.9999720000
  6     -2.4622720140     7.1027809590     7.0106960000
  6     -3.6914761520     7.8147001330     6.9999720000
  6     -3.6914823050     9.2355440470     6.9999720000
  6     -4.9219784570     9.9459713320     6.9999720000
  6      3.6914823050     0.7104379410     6.9999720000
  6      2.4611953360     1.4291345580     7.0249200000
  6      2.4619151720     2.8393860540     7.0970060000
  6      1.2236300180     3.5587220520     7.0989240000
  6      1.2060955360     4.9609066860     7.1955660000
  6     -0.0006029400     5.6751915720     7.1021020000
  6     -0.0027070780     7.1060418040     7.0999180000
  6     -1.2240114700     7.8111835360     7.0378420000
  6     -1.2298686030     9.2376433490     7.0106120000
  6     -2.4609984570     9.9459713320     6.9999720000
  6      6.1524746100     0.7104379410     6.9999720000
  6      4.9225875500     1.4203643770     7.0060200000
  6      4.9278786570     2.8406648160     7.0334740000
  6      3.7010432120     3.5572408190     7.1123360000
  6      3.7168734660     4.9603951810     7.2049040000
  6      2.4605308710     5.6893112440     7.5722360000
  6      2.4608446460     7.1357304110     7.1856540000
  6      1.2386912160     7.8192397410     7.0975380000
  6      1.2315051540     9.2386024210     7.0146860000
  6     -0.0000061520     9.9459713320     6.9999720000
  6      8.6134669150     0.7104379410     6.9999720000
  6      7.3848103450     1.4204709410     6.9973960000
  6      7.3872959350     2.8397696830     6.9986980000
  6      6.1568120870     3.5504527200     7.0176400000
  6      6.1560614880     4.9700072140     7.0292320000
  6      4.9234673500     5.6741792180     7.1107400000
  6      4.9245686390     7.1046138520     7.0977060000
  6      3.6834287480     7.8180888550     7.0953960000
  6      3.6906517240     9.2377499120     7.0129640000
  6      2.4609861520     9.9459713320     6.9999720000
  6     11.0744469150     0.7104379410     6.9999720000
  6      9.8439569150     1.4208545700     6.9999720000
  6      9.8439507620     2.8416984830     6.9999720000
  6      8.6151034660     3.5509961940     6.9974520000
  6      8.6134546100     4.9729803380     6.9999720000
  6      7.3841089660     5.6836100930     7.0046900000
  6      7.3829584570     7.1042621920     6.9999720000
  6      6.1451162800     7.8102351200     7.0252700000
  6      6.1524623050     9.2355440470     6.9999720000
  6      4.9219661520     9.9459713320     6.9999720000
  8      2.4549752090     5.7839290290     9.0742540000
  1      2.5894000890     4.8759542160     9.4198160000
 CONVCOORD
          52           1
  6      1.2305023050     0.7104379410     6.9999720000
  6      0.0000123050     1.4208545700     6.9999720000
  6     -0.0025409620     2.8416984830     7.0163100000
  6     -1.2304838470     3.5521364240     6.9999720000
  6     -1.2320465700     4.9710941630     7.0172900000
  6     -2.4609800000     5.6834182790     6.9999720000
  6     -2.4622720140     7.1027809590     7.0106960000
  6     -3.6914761520     7.8147001330     6.9999720000
  6     -3.6914823050     9.2355440470     6.9999720000
  6     -4.9219784570     9.9459713320     6.9999720000
  6      3.6914823050     0.7104379410     6.9999720000
  6      2.4611953360     1.4291345580     7.0249200000
  6      2.4619151720     2.8393860540     7.0970060000
  6      1.2236300180     3.5587220520     7.0989240000
  6      1.2060955360     4.9609066860     7.1955660000
  6     -0.0006029400     5.6751915720     7.1021020000
  6     -0.0027070780     7.1060418040     7.0999180000
  6     -1.2240114700     7.8111835360     7.0378420000
  6     -1.2298686030     9.2376433490     7.0106120000
  6     -2.4609984570     9.9459713320     6.9999720000
  6      6.1524746100     0.7104379410     6.9999720000
  6      4.9225875500     1.4203643770     7.0060200000
  6      4.9278786570     2.8406648160     7.0334740000
  6      3.7010432120     3.5572408190     7.1123360000
  6      3.7168734660     4.9603951810     7.2049040000
  6      2.4605308710     5.6893112440     7.5722360000
  6      2.4608446460     7.1357304110     7.1856540000
  6      1.2386912160     7.8192397410     7.0975380000
  6      1.2315051540     9.2386024210     7.0146860000
  6     -0.0000061520     9.9459713320     6.9999720000
  6      8.6134669150     0.7104379410     6.9999720000
  6      7.3848103450     1.4204709410     6.9973960000
  6      7.3872959350     2.8397696830     6.9986980000
  6      6.1568120870     3.5504527200     7.0176400000
  6      6.1560614880     4.9700072140     7.0292320000
  6      4.9234673500     5.6741792180     7.1107400000
  6      4.9245686390     7.1046138520     7.0977060000
  6      3.6834287480     7.8180888550     7.0953960000
  6      3.6906517240     9.2377499120     7.0129640000
  6      2.4609861520     9.9459713320     6.9999720000
  6     11.0744469150     0.7104379410     6.9999720000
  6      9.8439569150     1.4208545700     6.9999720000
  6      9.8439507620     2.8416984830     6.9999720000
  6      8.6151034660     3.5509961940     6.9974520000
  6      8.6134546100     4.9729803380     6.9999720000
  6      7.3841089660     5.6836100930     7.0046900000
  6      7.3829584570     7.1042621920     6.9999720000
  6      6.1451162800     7.8102351200     7.0252700000
  6      6.1524623050     9.2355440470     6.9999720000
  6      4.9219661520     9.9459713320     6.9999720000
  8      2.4549752090     5.7839290290     9.0742540000
  1      2.5894000890     4.8759542160     9.4198160000
 RECIP-PRIMVEC
    0.0812684378    0.0469203544   -0.0000000000

    0.0000000000    0.0938407089    0.0000000000

    0.0000000000   -0.0000000000    0.0714285714

 RECIP-CONVVEC
    0.0812684378    0.0469203544   -0.0000000000

    0.0000000000    0.0938407089    0.0000000000

    0.0000000000   -0.0000000000    0.0714285714

 WIGNER-SEITZ-PRIMCELL
           4
 -0.6152450E+01 -0.3552119E+01  0.7000000E+01  -0.5000000E+00 -0.8660254E+00 -0.1071608E-15
 -0.6152450E+01 -0.3552119E+01 -0.7000000E+01  -0.5000000E+00 -0.8660254E+00 -0.1071608E-15
 -0.0000000E+00 -0.7104237E+01 -0.7000000E+01  -0.5000000E+00 -0.8660254E+00 -0.1071608E-15
  0.1981734E-14 -0.7104237E+01  0.7000000E+01  -0.5000000E+00 -0.8660254E+00 -0.1071608E-15
           4
 -0.6152450E+01 -0.3552119E+01  0.7000000E+01  -0.1000000E+01 -0.7931493E-32 -0.6344132E-16
 -0.6152450E+01  0.3552119E+01  0.7000000E+01  -0.1000000E+01 -0.7931493E-32 -0.6344132E-16
 -0.6152450E+01  0.3552119E+01 -0.7000000E+01  -0.1000000E+01 -0.7931493E-32 -0.6344132E-16
 -0.6152450E+01 -0.3552119E+01 -0.7000000E+01  -0.1000000E+01 -0.7931493E-32 -0.6344132E-16
           4
 -0.0000000E+00 -0.7104237E+01 -0.7000000E+01   0.5000000E+00 -0.8660254E+00  0.9916158E-16
  0.6152450E+01 -0.3552119E+01 -0.7000000E+01   0.5000000E+00 -0.8660254E+00  0.9916158E-16
  0.6152450E+01 -0.3552119E+01  0.7000000E+01   0.5000000E+00 -0.8660254E+00  0.9916158E-16
  0.9908669E-15 -0.7104237E+01  0.7000000E+01   0.5000000E+00 -0.8660254E+00  0.9916158E-16
           6
 -0.6152450E+01 -0.3552119E+01 -0.7000000E+01   0.1625641E-15  0.0000000E+00 -0.1000000E+01
 -0.6152450E+01  0.3552119E+01 -0.7000000E+01   0.1625641E-15  0.0000000E+00 -0.1000000E+01
  0.0000000E+00  0.7104237E+01 -0.7000000E+01   0.1625641E-15  0.0000000E+00 -0.1000000E+01
  0.6152450E+01  0.3552119E+01 -0.7000000E+01   0.1625641E-15  0.0000000E+00 -0.1000000E+01
  0.6152450E+01 -0.3552119E+01 -0.7000000E+01   0.1625641E-15  0.0000000E+00 -0.1000000E+01
 -0.0000000E+00 -0.7104237E+01 -0.7000000E+01   0.1625641E-15  0.0000000E+00 -0.1000000E+01
           6
  0.1981734E-14 -0.7104237E+01  0.7000000E+01   0.1625641E-15 -0.0000000E+00  0.1000000E+01
  0.6152450E+01 -0.3552119E+01  0.7000000E+01   0.1625641E-15 -0.0000000E+00  0.1000000E+01
  0.6152450E+01  0.3552119E+01  0.7000000E+01   0.1625641E-15 -0.0000000E+00  0.1000000E+01
  0.2972601E-14  0.7104237E+01  0.7000000E+01   0.1625641E-15 -0.0000000E+00  0.1000000E+01
 -0.6152450E+01  0.3552119E+01  0.7000000E+01   0.1625641E-15 -0.0000000E+00  0.1000000E+01
 -0.6152450E+01 -0.3552119E+01  0.7000000E+01   0.1625641E-15 -0.0000000E+00  0.1000000E+01
           4
 -0.0000000E+00  0.7104237E+01  0.7000000E+01  -0.5000000E+00  0.8660254E+00 -0.4643635E-15
 -0.0000000E+00  0.7104237E+01 -0.7000000E+01  -0.5000000E+00  0.8660254E+00 -0.4643635E-15
 -0.6152450E+01  0.3552119E+01 -0.7000000E+01  -0.5000000E+00  0.8660254E+00 -0.4643635E-15
 -0.6152450E+01  0.3552119E+01  0.7000000E+01  -0.5000000E+00  0.8660254E+00 -0.4643635E-15
           4
  0.6152450E+01 -0.3552119E+01 -0.7000000E+01   0.1000000E+01  0.1250209E-15 -0.6344132E-16
  0.6152450E+01  0.3552119E+01 -0.7000000E+01   0.1000000E+01  0.1250209E-15 -0.6344132E-16
  0.6152450E+01  0.3552119E+01  0.7000000E+01   0.1000000E+01  0.1250209E-15 -0.6344132E-16
  0.6152450E+01 -0.3552119E+01  0.7000000E+01   0.1000000E+01  0.1250209E-15 -0.6344132E-16
           4
  0.1981734E-14  0.7104237E+01  0.7000000E+01   0.5000000E+00  0.8660254E+00 -0.4600877E-15
  0.6152450E+01  0.3552119E+01  0.7000000E+01   0.5000000E+00  0.8660254E+00 -0.4600877E-15
  0.6152450E+01  0.3552119E+01 -0.7000000E+01   0.5000000E+00  0.8660254E+00 -0.4600877E-15
 -0.0000000E+00  0.7104237E+01 -0.7000000E+01   0.5000000E+00  0.8660254E+00 -0.4600877E-15
 WIGNER-SEITZ-PRIMCELL_END
 WIGNER-SEITZ-CONVCELL
           4
 -0.6152450E+01 -0.3552119E+01  0.7000000E+01  -0.5000000E+00 -0.8660254E+00 -0.1071608E-15
 -0.6152450E+01 -0.3552119E+01 -0.7000000E+01  -0.5000000E+00 -0.8660254E+00 -0.1071608E-15
 -0.0000000E+00 -0.7104237E+01 -0.7000000E+01  -0.5000000E+00 -0.8660254E+00 -0.1071608E-15
  0.1981734E-14 -0.7104237E+01  0.7000000E+01  -0.5000000E+00 -0.8660254E+00 -0.1071608E-15
           4
 -0.6152450E+01 -0.3552119E+01  0.7000000E+01  -0.1000000E+01 -0.7931493E-32 -0.6344132E-16
 -0.6152450E+01  0.3552119E+01  0.7000000E+01  -0.1000000E+01 -0.7931493E-32 -0.6344132E-16
 -0.6152450E+01  0.3552119E+01 -0.7000000E+01  -0.1000000E+01 -0.7931493E-32 -0.6344132E-16
 -0.6152450E+01 -0.3552119E+01 -0.7000000E+01  -0.1000000E+01 -0.7931493E-32 -0.6344132E-16
           4
 -0.0000000E+00 -0.7104237E+01 -0.7000000E+01   0.5000000E+00 -0.8660254E+00  0.9916158E-16
  0.6152450E+01 -0.3552119E+01 -0.7000000E+01   0.5000000E+00 -0.8660254E+00  0.9916158E-16
  0.6152450E+01 -0.3552119E+01  0.7000000E+01   0.5000000E+00 -0.8660254E+00  0.9916158E-16
  0.9908669E-15 -0.7104237E+01  0.7000000E+01   0.5000000E+00 -0.8660254E+00  0.9916158E-16
           6
 -0.6152450E+01 -0.3552119E+01 -0.7000000E+01   0.1625641E-15  0.0000000E+00 -0.1000000E+01
 -0.6152450E+01  0.3552119E+01 -0.7000000E+01   0.1625641E-15  0.0000000E+00 -0.1000000E+01
  0.0000000E+00  0.7104237E+01 -0.7000000E+01   0.1625641E-15  0.0000000E+00 -0.1000000E+01
  0.6152450E+01  0.3552119E+01 -0.7000000E+01   0.1625641E-15  0.0000000E+00 -0.1000000E+01
  0.6152450E+01 -0.3552119E+01 -0.7000000E+01   0.1625641E-15  0.0000000E+00 -0.1000000E+01
 -0.0000000E+00 -0.7104237E+01 -0.7000000E+01   0.1625641E-15  0.0000000E+00 -0.1000000E+01
           6
  0.1981734E-14 -0.7104237E+01  0.7000000E+01   0.1625641E-15 -0.0000000E+00  0.1000000E+01
  0.6152450E+01 -0.3552119E+01  0.7000000E+01   0.1625641E-15 -0.0000000E+00  0.1000000E+01
  0.6152450E+01  0.3552119E+01  0.7000000E+01   0.1625641E-15 -0.0000000E+00  0.1000000E+01
  0.2972601E-14  0.7104237E+01  0.7000000E+01   0.1625641E-15 -0.0000000E+00  0.1000000E+01
 -0.6152450E+01  0.3552119E+01  0.7000000E+01   0.1625641E-15 -0.0000000E+00  0.1000000E+01
 -0.6152450E+01 -0.3552119E+01  0.7000000E+01   0.1625641E-15 -0.0000000E+00  0.1000000E+01
           4
 -0.0000000E+00  0.7104237E+01  0.7000000E+01  -0.5000000E+00  0.8660254E+00 -0.4643635E-15
 -0.0000000E+00  0.7104237E+01 -0.7000000E+01  -0.5000000E+00  0.8660254E+00 -0.4643635E-15
 -0.6152450E+01  0.3552119E+01 -0.7000000E+01  -0.5000000E+00  0.8660254E+00 -0.4643635E-15
 -0.6152450E+01  0.3552119E+01  0.7000000E+01  -0.5000000E+00  0.8660254E+00 -0.4643635E-15
           4
  0.6152450E+01 -0.3552119E+01 -0.7000000E+01   0.1000000E+01  0.1250209E-15 -0.6344132E-16
  0.6152450E+01  0.3552119E+01 -0.7000000E+01   0.1000000E+01  0.1250209E-15 -0.6344132E-16
  0.6152450E+01  0.3552119E+01  0.7000000E+01   0.1000000E+01  0.1250209E-15 -0.6344132E-16
  0.6152450E+01 -0.3552119E+01  0.7000000E+01   0.1000000E+01  0.1250209E-15 -0.6344132E-16
           4
  0.1981734E-14  0.7104237E+01  0.7000000E+01   0.5000000E+00  0.8660254E+00 -0.4600877E-15
  0.6152450E+01  0.3552119E+01  0.7000000E+01   0.5000000E+00  0.8660254E+00 -0.4600877E-15
  0.6152450E+01  0.3552119E+01 -0.7000000E+01   0.5000000E+00  0.8660254E+00 -0.4600877E-15
 -0.0000000E+00  0.7104237E+01 -0.7000000E+01   0.5000000E+00  0.8660254E+00 -0.4600877E-15
 WIGNER-SEITZ-CONVCELL_END
 BRILLOUIN-ZONE-PRIMCELL
           4
 -0.5417896E-01 -0.0000000E+00  0.3571429E-01  -0.8660254E+00 -0.5000000E+00 -0.8412962E-16
 -0.5417896E-01  0.0000000E+00 -0.3571429E-01  -0.8660254E+00 -0.5000000E+00 -0.8412962E-16
 -0.2708948E-01 -0.4692035E-01 -0.3571429E-01  -0.8660254E+00 -0.5000000E+00 -0.8412962E-16
 -0.2708948E-01 -0.4692035E-01  0.3571429E-01  -0.8660254E+00 -0.5000000E+00 -0.8412962E-16
           4
 -0.2708948E-01  0.4692035E-01  0.3571429E-01  -0.8660254E+00  0.5000000E+00 -0.8412962E-16
 -0.2708948E-01  0.4692035E-01 -0.3571429E-01  -0.8660254E+00  0.5000000E+00 -0.8412962E-16
 -0.5417896E-01  0.0000000E+00 -0.3571429E-01  -0.8660254E+00  0.5000000E+00 -0.8412962E-16
 -0.5417896E-01 -0.0000000E+00  0.3571429E-01  -0.8660254E+00  0.5000000E+00 -0.8412962E-16
           4
 -0.2708948E-01 -0.4692035E-01  0.3571429E-01  -0.0000000E+00 -0.1000000E+01 -0.0000000E+00
 -0.2708948E-01 -0.4692035E-01 -0.3571429E-01  -0.0000000E+00 -0.1000000E+01 -0.0000000E+00
  0.2708948E-01 -0.4692035E-01 -0.3571429E-01  -0.0000000E+00 -0.1000000E+01 -0.0000000E+00
  0.2708948E-01 -0.4692035E-01  0.3571429E-01  -0.0000000E+00 -0.1000000E+01 -0.0000000E+00
           6
 -0.5417896E-01  0.0000000E+00 -0.3571429E-01   0.0000000E+00 -0.8529986E-16 -0.1000000E+01
 -0.2708948E-01  0.4692035E-01 -0.3571429E-01   0.0000000E+00 -0.8529986E-16 -0.1000000E+01
  0.2708948E-01  0.4692035E-01 -0.3571429E-01   0.0000000E+00 -0.8529986E-16 -0.1000000E+01
  0.5417896E-01 -0.0000000E+00 -0.3571429E-01   0.0000000E+00 -0.8529986E-16 -0.1000000E+01
  0.2708948E-01 -0.4692035E-01 -0.3571429E-01   0.0000000E+00 -0.8529986E-16 -0.1000000E+01
 -0.2708948E-01 -0.4692035E-01 -0.3571429E-01   0.0000000E+00 -0.8529986E-16 -0.1000000E+01
           6
 -0.2708948E-01 -0.4692035E-01  0.3571429E-01  -0.0000000E+00 -0.0000000E+00  0.1000000E+01
  0.2708948E-01 -0.4692035E-01  0.3571429E-01  -0.0000000E+00 -0.0000000E+00  0.1000000E+01
  0.5417896E-01  0.0000000E+00  0.3571429E-01  -0.0000000E+00 -0.0000000E+00  0.1000000E+01
  0.2708948E-01  0.4692035E-01  0.3571429E-01  -0.0000000E+00 -0.0000000E+00  0.1000000E+01
 -0.2708948E-01  0.4692035E-01  0.3571429E-01  -0.0000000E+00 -0.0000000E+00  0.1000000E+01
 -0.5417896E-01 -0.0000000E+00  0.3571429E-01  -0.0000000E+00 -0.0000000E+00  0.1000000E+01
           4
 -0.2708948E-01  0.4692035E-01  0.3571429E-01   0.0000000E+00  0.1000000E+01  0.0000000E+00
  0.2708948E-01  0.4692035E-01  0.3571429E-01   0.0000000E+00  0.1000000E+01  0.0000000E+00
  0.2708948E-01  0.4692035E-01 -0.3571429E-01   0.0000000E+00  0.1000000E+01  0.0000000E+00
 -0.2708948E-01  0.4692035E-01 -0.3571429E-01   0.0000000E+00  0.1000000E+01  0.0000000E+00
           4
  0.2708948E-01 -0.4692035E-01  0.3571429E-01   0.8660254E+00 -0.5000000E+00 -0.5603220E-16
  0.2708948E-01 -0.4692035E-01 -0.3571429E-01   0.8660254E+00 -0.5000000E+00 -0.5603220E-16
  0.5417896E-01  0.0000000E+00 -0.3571429E-01   0.8660254E+00 -0.5000000E+00 -0.5603220E-16
  0.5417896E-01  0.0000000E+00  0.3571429E-01   0.8660254E+00 -0.5000000E+00 -0.5603220E-16
           4
  0.5417896E-01  0.0000000E+00  0.3571429E-01   0.8660254E+00  0.5000000E+00 -0.5603220E-16
  0.5417896E-01  0.0000000E+00 -0.3571429E-01   0.8660254E+00  0.5000000E+00 -0.5603220E-16
  0.2708948E-01  0.4692035E-01 -0.3571429E-01   0.8660254E+00  0.5000000E+00 -0.5603220E-16
  0.2708948E-01  0.4692035E-01  0.3571429E-01   0.8660254E+00  0.5000000E+00 -0.5603220E-16
 BRILLOUIN-ZONE-PRIMCELL_END
 BRILLOUIN-ZONE-CONVCELL
           4
 -0.5417896E-01 -0.0000000E+00  0.3571429E-01  -0.8660254E+00 -0.5000000E+00 -0.8412962E-16
 -0.5417896E-01  0.0000000E+00 -0.3571429E-01  -0.8660254E+00 -0.5000000E+00 -0.8412962E-16
 -0.2708948E-01 -0.4692035E-01 -0.3571429E-01  -0.8660254E+00 -0.5000000E+00 -0.8412962E-16
 -0.2708948E-01 -0.4692035E-01  0.3571429E-01  -0.8660254E+00 -0.5000000E+00 -0.8412962E-16
           4
 -0.2708948E-01  0.4692035E-01  0.3571429E-01  -0.8660254E+00  0.5000000E+00 -0.8412962E-16
 -0.2708948E-01  0.4692035E-01 -0.3571429E-01  -0.8660254E+00  0.5000000E+00 -0.8412962E-16
 -0.5417896E-01  0.0000000E+00 -0.3571429E-01  -0.8660254E+00  0.5000000E+00 -0.8412962E-16
 -0.5417896E-01 -0.0000000E+00  0.3571429E-01  -0.8660254E+00  0.5000000E+00 -0.8412962E-16
           4
 -0.2708948E-01 -0.4692035E-01  0.3571429E-01  -0.0000000E+00 -0.1000000E+01 -0.0000000E+00
 -0.2708948E-01 -0.4692035E-01 -0.3571429E-01  -0.0000000E+00 -0.1000000E+01 -0.0000000E+00
  0.2708948E-01 -0.4692035E-01 -0.3571429E-01  -0.0000000E+00 -0.1000000E+01 -0.0000000E+00
  0.2708948E-01 -0.4692035E-01  0.3571429E-01  -0.0000000E+00 -0.1000000E+01 -0.0000000E+00
           6
 -0.5417896E-01  0.0000000E+00 -0.3571429E-01   0.0000000E+00 -0.8529986E-16 -0.1000000E+01
 -0.2708948E-01  0.4692035E-01 -0.3571429E-01   0.0000000E+00 -0.8529986E-16 -0.1000000E+01
  0.2708948E-01  0.4692035E-01 -0.3571429E-01   0.0000000E+00 -0.8529986E-16 -0.1000000E+01
  0.5417896E-01 -0.0000000E+00 -0.3571429E-01   0.0000000E+00 -0.8529986E-16 -0.1000000E+01
  0.2708948E-01 -0.4692035E-01 -0.3571429E-01   0.0000000E+00 -0.8529986E-16 -0.1000000E+01
 -0.2708948E-01 -0.4692035E-01 -0.3571429E-01   0.0000000E+00 -0.8529986E-16 -0.1000000E+01
           6
 -0.2708948E-01 -0.4692035E-01  0.3571429E-01  -0.0000000E+00 -0.0000000E+00  0.1000000E+01
  0.2708948E-01 -0.4692035E-01  0.3571429E-01  -0.0000000E+00 -0.0000000E+00  0.1000000E+01
  0.5417896E-01  0.0000000E+00  0.3571429E-01  -0.0000000E+00 -0.0000000E+00  0.1000000E+01
  0.2708948E-01  0.4692035E-01  0.3571429E-01  -0.0000000E+00 -0.0000000E+00  0.1000000E+01
 -0.2708948E-01  0.4692035E-01  0.3571429E-01  -0.0000000E+00 -0.0000000E+00  0.1000000E+01
 -0.5417896E-01 -0.0000000E+00  0.3571429E-01  -0.0000000E+00 -0.0000000E+00  0.1000000E+01
           4
 -0.2708948E-01  0.4692035E-01  0.3571429E-01   0.0000000E+00  0.1000000E+01  0.0000000E+00
  0.2708948E-01  0.4692035E-01  0.3571429E-01   0.0000000E+00  0.1000000E+01  0.0000000E+00
  0.2708948E-01  0.4692035E-01 -0.3571429E-01   0.0000000E+00  0.1000000E+01  0.0000000E+00
 -0.2708948E-01  0.4692035E-01 -0.3571429E-01   0.0000000E+00  0.1000000E+01  0.0000000E+00
           4
  0.2708948E-01 -0.4692035E-01  0.3571429E-01   0.8660254E+00 -0.5000000E+00 -0.5603220E-16
  0.2708948E-01 -0.4692035E-01 -0.3571429E-01   0.8660254E+00 -0.5000000E+00 -0.5603220E-16
  0.5417896E-01  0.0000000E+00 -0.3571429E-01   0.8660254E+00 -0.5000000E+00 -0.5603220E-16
  0.5417896E-01  0.0000000E+00  0.3571429E-01   0.8660254E+00 -0.5000000E+00 -0.5603220E-16
           4
  0.5417896E-01  0.0000000E+00  0.3571429E-01   0.8660254E+00  0.5000000E+00 -0.5603220E-16
  0.5417896E-01  0.0000000E+00 -0.3571429E-01   0.8660254E+00  0.5000000E+00 -0.5603220E-16
  0.2708948E-01  0.4692035E-01 -0.3571429E-01   0.8660254E+00  0.5000000E+00 -0.5603220E-16
  0.2708948E-01  0.4692035E-01  0.3571429E-01   0.8660254E+00  0.5000000E+00 -0.5603220E-16
 BRILLOUIN-ZONE-CONVCELL_END
 ATOMS
    6    1.2305023050    0.7104379410    6.9999720000
    6    0.0000123050    1.4208545700    6.9999720000
    6   -0.0025409620    2.8416984830    7.0163100000
    6   -1.2304838470    3.5521364240    6.9999720000
    6   -1.2320465700    4.9710941630    7.0172900000
    6   -2.4609800000    5.6834182790    6.9999720000
    6   -2.4622720140    7.1027809590    7.0106960000
    6   -3.6914761520    7.8147001330    6.9999720000
    6   -3.6914823050    9.2355440470    6.9999720000
    6   -4.9219784570    9.9459713320    6.9999720000
    6    3.6914823050    0.7104379410    6.9999720000
    6    2.4611953360    1.4291345580    7.0249200000
    6    2.4619151720    2.8393860540    7.0970060000
    6    1.2236300180    3.5587220520    7.0989240000
    6    1.2060955360    4.9609066860    7.1955660000
    6   -0.0006029400    5.6751915720    7.1021020000
    6   -0.0027070780    7.1060418040    7.0999180000
    6   -1.2240114700    7.8111835360    7.0378420000
    6   -1.2298686030    9.2376433490    7.0106120000
    6   -2.4609984570    9.9459713320    6.9999720000
    6    6.1524746100    0.7104379410    6.9999720000
    6    4.9225875500    1.4203643770    7.0060200000
    6    4.9278786570    2.8406648160    7.0334740000
    6    3.7010432120    3.5572408190    7.1123360000
    6    3.7168734660    4.9603951810    7.2049040000
    6    2.4605308710    5.6893112440    7.5722360000
    6    2.4608446460    7.1357304110    7.1856540000
    6    1.2386912160    7.8192397410    7.0975380000
    6    1.2315051540    9.2386024210    7.0146860000
    6   -0.0000061520    9.9459713320    6.9999720000
    6    8.6134669150    0.7104379410    6.9999720000
    6    7.3848103450    1.4204709410    6.9973960000
    6    7.3872959350    2.8397696830    6.9986980000
    6    6.1568120870    3.5504527200    7.0176400000
    6    6.1560614880    4.9700072140    7.0292320000
    6    4.9234673500    5.6741792180    7.1107400000
    6    4.9245686390    7.1046138520    7.0977060000
    6    3.6834287480    7.8180888550    7.0953960000
    6    3.6906517240    9.2377499120    7.0129640000
    6    2.4609861520    9.9459713320    6.9999720000
    6   11.0744469150    0.7104379410    6.9999720000
    6    9.8439569150    1.4208545700    6.9999720000
    6    9.8439507620    2.8416984830    6.9999720000
    6    8.6151034660    3.5509961940    6.9974520000
    6    8.6134546100    4.9729803380    6.9999720000
    6    7.3841089660    5.6836100930    7.0046900000
    6    7.3829584570    7.1042621920    6.9999720000
    6    6.1451162800    7.8102351200    7.0252700000
    6    6.1524623050    9.2355440470    6.9999720000
    6    4.9219661520    9.9459713320    6.9999720000
    8    2.4549752090    5.7839290290    9.0742540000
    1    2.5894000890    4.8759542160    9.4198160000
 FRAMES
1      0.0000000000    0.0000000000    0.0000000000     12.3049000000    0.0000000000    0.0000000000
1      0.0000000000    0.0000000000    0.0000000000     -6.1524500000   10.6563559910    0.0000000000
1      0.0000000000    0.0000000000    0.0000000000      0.0000000000    0.0000000000   14.0000000000
1      0.0000000000    0.0000000000   14.0000000000     12.3049000000    0.0000000000   14.0000000000
1      0.0000000000    0.0000000000   14.0000000000     -6.1524500000   10.6563559910   14.0000000000
1     -6.1524500000   10.6563559910    0.0000000000      6.1524500000   10.6563559910    0.0000000000
1     -6.1524500000   10.6563559910    0.0000000000     -6.1524500000   10.6563559910   14.0000000000
1     -6.1524500000   10.6563559910   14.0000000000      6.1524500000   10.6563559910   14.0000000000
1     12.3049000000    0.0000000000    0.0000000000      6.1524500000   10.6563559910    0.0000000000
1     12.3049000000    0.0000000000    0.0000000000     12.3049000000    0.0000000000   14.0000000000
1     12.3049000000    0.0000000000   14.0000000000      6.1524500000   10.6563559910   14.0000000000
1      6.1524500000   10.6563559910    0.0000000000      6.1524500000   10.6563559910   14.0000000000
