 INFO
nunit      1    1    1
unit   cell
celltype   primcell
shape   parapipedal
 END_INFO
 DIM-GROUP
           3           9
 PRIMVEC
   12.3048999510    0.0000000000    0.0000000000
   -6.1524499750   10.6563509800    0.0000000000
    0.0000000000    0.0000000000   13.9999983580
 CONVVEC
   12.3048999510    0.0000000000    0.0000000000
   -6.1524499750   10.6563509800    0.0000000000
    0.0000000000    0.0000000000   13.9999983580
 PRIMCOORD
          52           1
  6      1.2305023000     0.7104376070     6.9999711790    -0.0050166300    -0.0005199000     0.0027777500
  6      0.0000123050     1.4208539020     6.9999711790     0.0002215300     0.0000003900    -0.0003920100
  6     -0.0025423280     2.8417015160     7.0163082530    -0.0001267300    -0.0000331900     0.0001714500
  6     -1.2304838430     3.5521347540     6.9999711790    -0.0015780700    -0.0011698400     0.0043850800
  6     -1.2320395760     4.9710897150     7.0172905210    -0.0000044200     0.0000070400    -0.0002027900
  6     -2.4609799900     5.6834156060     6.9999711790    -0.0012941300    -0.0010485100     0.0016898800
  6     -2.4622674090     7.1027756260     7.0106989020    -0.0004110200    -0.0000944800    -0.0000484400
  6     -3.6914761380     7.8146964590     6.9999711790    -0.0009655500    -0.0082781800    -0.0012951500
  6     -3.6914822900     9.2355397040     6.9999711790     0.0002562100    -0.0003543500     0.0013385700
  6     -4.9219784380     9.9459666550     6.9999711790    -0.0068085400     0.0037438800    -0.0036963800
  6      3.6914822900     0.7104376070     6.9999711790     0.0051646100    -0.0007136200     0.0036887600
  6      2.4612002910     1.4291350900     7.0249218500    -0.0000341000    -0.0003145800     0.0002361400
  6      2.4619121230     2.8393874250     7.0970000300    -0.0003880200    -0.0000660000    -0.0002716800
  6      1.2236243350     3.5587242680     7.0989285440    -0.0005592600    -0.0006009100     0.0003246900
  6      1.2060869610     4.9609089460     7.1955671300     0.0001271300    -0.0002060100     0.0002579200
  6     -0.0006060900     5.6751881570     7.1020960150     0.0006181700     0.0002519200     0.0001182500
  6     -0.0027047830     7.1060416480     7.0999139190    -0.0006853700    -0.0000846800    -0.0000556800
  6     -1.2240139080     7.8111751210     7.0378448710    -0.0003319400     0.0001733100    -0.0005402800
  6     -1.2298690650     9.2376373000     7.0106144680    -0.0002587400     0.0001442700    -0.0000888500
  6     -2.4609984480     9.9459666550     6.9999711790     0.0069141000     0.0050953700    -0.0013916800
  6      6.1524745850     0.7104376070     6.9999711790     0.0018447400    -0.0001802200    -0.0032941900
  6      4.9225835560     1.4203677590     7.0060136210     0.0000213400     0.0000421500    -0.0003786600
  6      4.9278739250     2.8406677220     7.0334762970    -0.0002395800     0.0002355400    -0.0006972100
  6      3.7010385090     3.5572428970     7.1123371960    -0.0001979000     0.0002788800    -0.0006888800
  6      3.7168716360     4.9603946500     7.2049043310     0.0003058200    -0.0001377800    -0.0002408600
  6      2.4605270350     5.6893127030     7.5722345800     0.0001997200    -0.0004765700     0.0003703000
  6      2.4608492380     7.1357276740     7.1856461990     0.0000668100     0.0001541100    -0.0000176800
  6      1.2386885100     7.8192330490     7.0975360900    -0.0000354300    -0.0002314700     0.0001157500
  6      1.2314976000     9.2386016460     7.0146903580     0.0000583800    -0.0003490700    -0.0002032300
  6     -0.0000061520     9.9459666550     6.9999711790     0.0005759400     0.0021143000     0.0013403200
  6      8.6134668800     0.7104376070     6.9999711790     0.0018475900     0.0030221400    -0.0029858500
  6      7.3848133360     1.4204740130     6.9974018860     0.0001336500    -0.0003702600     0.0002787400
  6      7.3873002180     2.8397695730     6.9986932310    -0.0001889000    -0.0003195500     0.0005891000
  6      6.1568080630     3.5504507100     7.0176359990    -0.0001680400    -0.0002930900     0.0005147800
  6      6.1560671050     4.9700033530     7.0292331220    -0.0001541400    -0.0001503500     0.0002311600
  6      4.9234713970     5.6741787350     7.1107440660     0.0003250300     0.0002614500    -0.0001985100
  6      4.9245609780     7.1046136230     7.0977055880     0.0001033600     0.0007221600    -0.0006372300
  6      3.6834261180     7.8180828020     7.0953930960     0.0001399300     0.0003642800     0.0003793200
  6      3.6906488670     9.2377453130     7.0129581240    -0.0001281700     0.0003981600     0.0003687000
  6      2.4609861430     9.9459666550     6.9999711790     0.0004574700     0.0017930000     0.0030621200
  6     11.0744468710     0.7104376070     6.9999711790     0.0001563800    -0.0002302400    -0.0031880200
  6      9.8439568750     1.4208539020     6.9999711790    -0.0021560400     0.0010425200     0.0002509100
  6      9.8439507230     2.8416971470     6.9999711790    -0.0010172000    -0.0028683800    -0.0033605300
  6      8.6151023920     3.5509996080     6.9974459720     0.0000775500    -0.0001173900     0.0001630900
  6      8.6134545760     4.9729779990     6.9999711790     0.0014535000    -0.0006564700    -0.0036075900
  6      7.3841112680     5.6836060250     7.0046881430    -0.0002410900    -0.0001351000    -0.0005429200
  6      7.3829584280     7.1042588520     6.9999711790     0.0032060200    -0.0035261800     0.0036115800
  6      6.1451127110     7.8102294440     7.0252695680     0.0004470900     0.0003331200     0.0001863700
  6      6.1524622800     9.2355397040     6.9999711790    -0.0020536800     0.0042799000     0.0029638700
  6      4.9219661330     9.9459666550     6.9999711790     0.0004746100     0.0001920700    -0.0009259200
  8      2.4549753840     5.7839286750     9.0742504300     0.0007465500    -0.0009791100     0.0004584300
  1      2.5893971070     4.8759534900     9.4198213360    -0.0009005900    -0.0001444900    -0.0009228100
 CONVCOORD
          52           1
  6      1.2305023000     0.7104376070     6.9999711790
  6      0.0000123050     1.4208539020     6.9999711790
  6     -0.0025423280     2.8417015160     7.0163082530
  6     -1.2304838430     3.5521347540     6.9999711790
  6     -1.2320395760     4.9710897150     7.0172905210
  6     -2.4609799900     5.6834156060     6.9999711790
  6     -2.4622674090     7.1027756260     7.0106989020
  6     -3.6914761380     7.8146964590     6.9999711790
  6     -3.6914822900     9.2355397040     6.9999711790
  6     -4.9219784380     9.9459666550     6.9999711790
  6      3.6914822900     0.7104376070     6.9999711790
  6      2.4612002910     1.4291350900     7.0249218500
  6      2.4619121230     2.8393874250     7.0970000300
  6      1.2236243350     3.5587242680     7.0989285440
  6      1.2060869610     4.9609089460     7.1955671300
  6     -0.0006060900     5.6751881570     7.1020960150
  6     -0.0027047830     7.1060416480     7.0999139190
  6     -1.2240139080     7.8111751210     7.0378448710
  6     -1.2298690650     9.2376373000     7.0106144680
  6     -2.4609984480     9.9459666550     6.9999711790
  6      6.1524745850     0.7104376070     6.9999711790
  6      4.9225835560     1.4203677590     7.0060136210
  6      4.9278739250     2.8406677220     7.0334762970
  6      3.7010385090     3.5572428970     7.1123371960
  6      3.7168716360     4.9603946500     7.2049043310
  6      2.4605270350     5.6893127030     7.5722345800
  6      2.4608492380     7.1357276740     7.1856461990
  6      1.2386885100     7.8192330490     7.0975360900
  6      1.2314976000     9.2386016460     7.0146903580
  6     -0.0000061520     9.9459666550     6.9999711790
  6      8.6134668800     0.7104376070     6.9999711790
  6      7.3848133360     1.4204740130     6.9974018860
  6      7.3873002180     2.8397695730     6.9986932310
  6      6.1568080630     3.5504507100     7.0176359990
  6      6.1560671050     4.9700033530     7.0292331220
  6      4.9234713970     5.6741787350     7.1107440660
  6      4.9245609780     7.1046136230     7.0977055880
  6      3.6834261180     7.8180828020     7.0953930960
  6      3.6906488670     9.2377453130     7.0129581240
  6      2.4609861430     9.9459666550     6.9999711790
  6     11.0744468710     0.7104376070     6.9999711790
  6      9.8439568750     1.4208539020     6.9999711790
  6      9.8439507230     2.8416971470     6.9999711790
  6      8.6151023920     3.5509996080     6.9974459720
  6      8.6134545760     4.9729779990     6.9999711790
  6      7.3841112680     5.6836060250     7.0046881430
  6      7.3829584280     7.1042588520     6.9999711790
  6      6.1451127110     7.8102294440     7.0252695680
  6      6.1524622800     9.2355397040     6.9999711790
  6      4.9219661330     9.9459666550     6.9999711790
  8      2.4549753840     5.7839286750     9.0742504300
  1      2.5893971070     4.8759534900     9.4198213360
 RECIP-PRIMVEC
    0.0812684381    0.0469203765   -0.0000000000

    0.0000000000    0.0938407530    0.0000000000

    0.0000000000   -0.0000000000    0.0714285798

 RECIP-CONVVEC
    0.0812684381    0.0469203765   -0.0000000000

    0.0000000000    0.0938407530    0.0000000000

    0.0000000000   -0.0000000000    0.0714285798

 WIGNER-SEITZ-PRIMCELL
           4
  0.6152450E+01 -0.3552115E+01 -0.6999999E+01   0.1000000E+01 -0.0000000E+00 -0.0000000E+00
  0.6152450E+01  0.3552115E+01 -0.6999999E+01   0.1000000E+01 -0.0000000E+00 -0.0000000E+00
  0.6152450E+01  0.3552115E+01  0.6999999E+01   0.1000000E+01 -0.0000000E+00 -0.0000000E+00
  0.6152450E+01 -0.3552115E+01  0.6999999E+01   0.1000000E+01 -0.0000000E+00 -0.0000000E+00
           4
  0.6152450E+01 -0.3552115E+01  0.6999999E+01   0.5000002E+00 -0.8660253E+00 -0.1435454E-15
 -0.4999987E-09 -0.7104236E+01  0.6999999E+01   0.5000002E+00 -0.8660253E+00 -0.1435454E-15
 -0.5000007E-09 -0.7104236E+01 -0.6999999E+01   0.5000002E+00 -0.8660253E+00 -0.1435454E-15
  0.6152450E+01 -0.3552115E+01 -0.6999999E+01   0.5000002E+00 -0.8660253E+00 -0.1435454E-15
           4
  0.6152450E+01  0.3552115E+01 -0.6999999E+01   0.5000002E+00  0.8660253E+00 -0.7210489E-16
  0.4999987E-09  0.7104236E+01 -0.6999999E+01   0.5000002E+00  0.8660253E+00 -0.7210489E-16
  0.5000007E-09  0.7104236E+01  0.6999999E+01   0.5000002E+00  0.8660253E+00 -0.7210489E-16
  0.6152450E+01  0.3552115E+01  0.6999999E+01   0.5000002E+00  0.8660253E+00 -0.7210489E-16
           6
 -0.6152450E+01 -0.3552115E+01 -0.6999999E+01  -0.1625643E-15  0.0000000E+00 -0.1000000E+01
 -0.6152450E+01  0.3552115E+01 -0.6999999E+01  -0.1625643E-15  0.0000000E+00 -0.1000000E+01
  0.4999987E-09  0.7104236E+01 -0.6999999E+01  -0.1625643E-15  0.0000000E+00 -0.1000000E+01
  0.6152450E+01  0.3552115E+01 -0.6999999E+01  -0.1625643E-15  0.0000000E+00 -0.1000000E+01
  0.6152450E+01 -0.3552115E+01 -0.6999999E+01  -0.1625643E-15  0.0000000E+00 -0.1000000E+01
 -0.5000007E-09 -0.7104236E+01 -0.6999999E+01  -0.1625643E-15  0.0000000E+00 -0.1000000E+01
           6
 -0.5000007E-09 -0.7104236E+01  0.6999999E+01  -0.3251285E-15 -0.0000000E+00  0.1000000E+01
  0.6152450E+01 -0.3552115E+01  0.6999999E+01  -0.3251285E-15 -0.0000000E+00  0.1000000E+01
  0.6152450E+01  0.3552115E+01  0.6999999E+01  -0.3251285E-15 -0.0000000E+00  0.1000000E+01
  0.4999987E-09  0.7104236E+01  0.6999999E+01  -0.3251285E-15 -0.0000000E+00  0.1000000E+01
 -0.6152450E+01  0.3552115E+01  0.6999999E+01  -0.3251285E-15 -0.0000000E+00  0.1000000E+01
 -0.6152450E+01 -0.3552115E+01  0.6999999E+01  -0.3251285E-15 -0.0000000E+00  0.1000000E+01
           4
 -0.6152450E+01 -0.3552115E+01  0.6999999E+01  -0.5000002E+00 -0.8660253E+00  0.0000000E+00
 -0.6152450E+01 -0.3552115E+01 -0.6999999E+01  -0.5000002E+00 -0.8660253E+00  0.0000000E+00
 -0.5000007E-09 -0.7104236E+01 -0.6999999E+01  -0.5000002E+00 -0.8660253E+00  0.0000000E+00
 -0.4999997E-09 -0.7104236E+01  0.6999999E+01  -0.5000002E+00 -0.8660253E+00  0.0000000E+00
           4
  0.4999997E-09  0.7104236E+01  0.6999999E+01  -0.5000002E+00  0.8660253E+00  0.1428811E-15
  0.4999987E-09  0.7104236E+01 -0.6999999E+01  -0.5000002E+00  0.8660253E+00  0.1428811E-15
 -0.6152450E+01  0.3552115E+01 -0.6999999E+01  -0.5000002E+00  0.8660253E+00  0.1428811E-15
 -0.6152450E+01  0.3552115E+01  0.6999999E+01  -0.5000002E+00  0.8660253E+00  0.1428811E-15
           4
 -0.6152450E+01 -0.3552115E+01  0.6999999E+01  -0.1000000E+01  0.0000000E+00  0.6344132E-16
 -0.6152450E+01  0.3552115E+01  0.6999999E+01  -0.1000000E+01  0.0000000E+00  0.6344132E-16
 -0.6152450E+01  0.3552115E+01 -0.6999999E+01  -0.1000000E+01  0.0000000E+00  0.6344132E-16
 -0.6152450E+01 -0.3552115E+01 -0.6999999E+01  -0.1000000E+01  0.0000000E+00  0.6344132E-16
 WIGNER-SEITZ-PRIMCELL_END
 WIGNER-SEITZ-CONVCELL
           4
  0.6152450E+01 -0.3552115E+01 -0.6999999E+01   0.1000000E+01 -0.0000000E+00 -0.0000000E+00
  0.6152450E+01  0.3552115E+01 -0.6999999E+01   0.1000000E+01 -0.0000000E+00 -0.0000000E+00
  0.6152450E+01  0.3552115E+01  0.6999999E+01   0.1000000E+01 -0.0000000E+00 -0.0000000E+00
  0.6152450E+01 -0.3552115E+01  0.6999999E+01   0.1000000E+01 -0.0000000E+00 -0.0000000E+00
           4
  0.6152450E+01 -0.3552115E+01  0.6999999E+01   0.5000002E+00 -0.8660253E+00 -0.1435454E-15
 -0.4999987E-09 -0.7104236E+01  0.6999999E+01   0.5000002E+00 -0.8660253E+00 -0.1435454E-15
 -0.5000007E-09 -0.7104236E+01 -0.6999999E+01   0.5000002E+00 -0.8660253E+00 -0.1435454E-15
  0.6152450E+01 -0.3552115E+01 -0.6999999E+01   0.5000002E+00 -0.8660253E+00 -0.1435454E-15
           4
  0.6152450E+01  0.3552115E+01 -0.6999999E+01   0.5000002E+00  0.8660253E+00 -0.7210489E-16
  0.4999987E-09  0.7104236E+01 -0.6999999E+01   0.5000002E+00  0.8660253E+00 -0.7210489E-16
  0.5000007E-09  0.7104236E+01  0.6999999E+01   0.5000002E+00  0.8660253E+00 -0.7210489E-16
  0.6152450E+01  0.3552115E+01  0.6999999E+01   0.5000002E+00  0.8660253E+00 -0.7210489E-16
           6
 -0.6152450E+01 -0.3552115E+01 -0.6999999E+01  -0.1625643E-15  0.0000000E+00 -0.1000000E+01
 -0.6152450E+01  0.3552115E+01 -0.6999999E+01  -0.1625643E-15  0.0000000E+00 -0.1000000E+01
  0.4999987E-09  0.7104236E+01 -0.6999999E+01  -0.1625643E-15  0.0000000E+00 -0.1000000E+01
  0.6152450E+01  0.3552115E+01 -0.6999999E+01  -0.1625643E-15  0.0000000E+00 -0.1000000E+01
  0.6152450E+01 -0.3552115E+01 -0.6999999E+01  -0.1625643E-15  0.0000000E+00 -0.1000000E+01
 -0.5000007E-09 -0.7104236E+01 -0.6999999E+01  -0.1625643E-15  0.0000000E+00 -0.1000000E+01
           6
 -0.5000007E-09 -0.7104236E+01  0.6999999E+01  -0.3251285E-15 -0.0000000E+00  0.1000000E+01
  0.6152450E+01 -0.3552115E+01  0.6999999E+01  -0.3251285E-15 -0.0000000E+00  0.1000000E+01
  0.6152450E+01  0.3552115E+01  0.6999999E+01  -0.3251285E-15 -0.0000000E+00  0.1000000E+01
  0.4999987E-09  0.7104236E+01  0.6999999E+01  -0.3251285E-15 -0.0000000E+00  0.1000000E+01
 -0.6152450E+01  0.3552115E+01  0.6999999E+01  -0.3251285E-15 -0.0000000E+00  0.1000000E+01
 -0.6152450E+01 -0.3552115E+01  0.6999999E+01  -0.3251285E-15 -0.0000000E+00  0.1000000E+01
           4
 -0.6152450E+01 -0.3552115E+01  0.6999999E+01  -0.5000002E+00 -0.8660253E+00  0.0000000E+00
 -0.6152450E+01 -0.3552115E+01 -0.6999999E+01  -0.5000002E+00 -0.8660253E+00  0.0000000E+00
 -0.5000007E-09 -0.7104236E+01 -0.6999999E+01  -0.5000002E+00 -0.8660253E+00  0.0000000E+00
 -0.4999997E-09 -0.7104236E+01  0.6999999E+01  -0.5000002E+00 -0.8660253E+00  0.0000000E+00
           4
  0.4999997E-09  0.7104236E+01  0.6999999E+01  -0.5000002E+00  0.8660253E+00  0.1428811E-15
  0.4999987E-09  0.7104236E+01 -0.6999999E+01  -0.5000002E+00  0.8660253E+00  0.1428811E-15
 -0.6152450E+01  0.3552115E+01 -0.6999999E+01  -0.5000002E+00  0.8660253E+00  0.1428811E-15
 -0.6152450E+01  0.3552115E+01  0.6999999E+01  -0.5000002E+00  0.8660253E+00  0.1428811E-15
           4
 -0.6152450E+01 -0.3552115E+01  0.6999999E+01  -0.1000000E+01  0.0000000E+00  0.6344132E-16
 -0.6152450E+01  0.3552115E+01  0.6999999E+01  -0.1000000E+01  0.0000000E+00  0.6344132E-16
 -0.6152450E+01  0.3552115E+01 -0.6999999E+01  -0.1000000E+01  0.0000000E+00  0.6344132E-16
 -0.6152450E+01 -0.3552115E+01 -0.6999999E+01  -0.1000000E+01  0.0000000E+00  0.6344132E-16
 WIGNER-SEITZ-CONVCELL_END
 BRILLOUIN-ZONE-PRIMCELL
           4
 -0.5417897E-01  0.3813147E-11 -0.3571429E-01  -0.8660253E+00 -0.5000002E+00 -0.3418542E-26
 -0.2708947E-01 -0.4692038E-01 -0.3571429E-01  -0.8660253E+00 -0.5000002E+00 -0.3418542E-26
 -0.2708947E-01 -0.4692038E-01  0.3571429E-01  -0.8660253E+00 -0.5000002E+00 -0.3418542E-26
 -0.5417897E-01  0.3813141E-11  0.3571429E-01  -0.8660253E+00 -0.5000002E+00 -0.3418542E-26
           4
 -0.5417897E-01  0.3813147E-11  0.3571429E-01  -0.8660253E+00  0.5000002E+00  0.5603216E-16
 -0.2708947E-01  0.4692038E-01  0.3571429E-01  -0.8660253E+00  0.5000002E+00  0.5603216E-16
 -0.2708947E-01  0.4692038E-01 -0.3571429E-01  -0.8660253E+00  0.5000002E+00  0.5603216E-16
 -0.5417897E-01  0.3813147E-11 -0.3571429E-01  -0.8660253E+00  0.5000002E+00  0.5603216E-16
           4
 -0.2708947E-01 -0.4692038E-01 -0.3571429E-01  -0.3732495E-31 -0.1000000E+01  0.2793475E-16
  0.2708947E-01 -0.4692038E-01 -0.3571429E-01  -0.3732495E-31 -0.1000000E+01  0.2793475E-16
  0.2708947E-01 -0.4692038E-01  0.3571429E-01  -0.3732495E-31 -0.1000000E+01  0.2793475E-16
 -0.2708947E-01 -0.4692038E-01  0.3571429E-01  -0.3732495E-31 -0.1000000E+01  0.2793475E-16
           6
 -0.5417897E-01  0.3813147E-11 -0.3571429E-01   0.0000000E+00 -0.3411994E-15 -0.1000000E+01
 -0.2708947E-01  0.4692038E-01 -0.3571429E-01   0.0000000E+00 -0.3411994E-15 -0.1000000E+01
  0.2708947E-01  0.4692038E-01 -0.3571429E-01   0.0000000E+00 -0.3411994E-15 -0.1000000E+01
  0.5417897E-01 -0.3813153E-11 -0.3571429E-01   0.0000000E+00 -0.3411994E-15 -0.1000000E+01
  0.2708947E-01 -0.4692038E-01 -0.3571429E-01   0.0000000E+00 -0.3411994E-15 -0.1000000E+01
 -0.2708947E-01 -0.4692038E-01 -0.3571429E-01   0.0000000E+00 -0.3411994E-15 -0.1000000E+01
           6
 -0.2708947E-01 -0.4692038E-01  0.3571429E-01  -0.0000000E+00 -0.3411994E-15  0.1000000E+01
  0.2708947E-01 -0.4692038E-01  0.3571429E-01  -0.0000000E+00 -0.3411994E-15  0.1000000E+01
  0.5417897E-01 -0.3813144E-11  0.3571429E-01  -0.0000000E+00 -0.3411994E-15  0.1000000E+01
  0.2708947E-01  0.4692038E-01  0.3571429E-01  -0.0000000E+00 -0.3411994E-15  0.1000000E+01
 -0.2708947E-01  0.4692038E-01  0.3571429E-01  -0.0000000E+00 -0.3411994E-15  0.1000000E+01
 -0.5417897E-01  0.3813147E-11  0.3571429E-01  -0.0000000E+00 -0.3411994E-15  0.1000000E+01
           4
 -0.2708947E-01  0.4692038E-01  0.3571429E-01  -0.1280737E-15  0.1000000E+01  0.1120644E-15
  0.2708947E-01  0.4692038E-01  0.3571429E-01  -0.1280737E-15  0.1000000E+01  0.1120644E-15
  0.2708947E-01  0.4692038E-01 -0.3571429E-01  -0.1280737E-15  0.1000000E+01  0.1120644E-15
 -0.2708947E-01  0.4692038E-01 -0.3571429E-01  -0.1280737E-15  0.1000000E+01  0.1120644E-15
           4
  0.2708947E-01 -0.4692038E-01 -0.3571429E-01   0.8660253E+00 -0.5000002E+00 -0.4353846E-16
  0.5417897E-01 -0.3813147E-11 -0.3571429E-01   0.8660253E+00 -0.5000002E+00 -0.4353846E-16
  0.5417897E-01 -0.3813153E-11  0.3571429E-01   0.8660253E+00 -0.5000002E+00 -0.4353846E-16
  0.2708947E-01 -0.4692038E-01  0.3571429E-01   0.8660253E+00 -0.5000002E+00 -0.4353846E-16
           4
  0.2708947E-01  0.4692038E-01  0.3571429E-01   0.8660253E+00  0.5000002E+00 -0.1712065E-15
  0.5417897E-01 -0.3813134E-11  0.3571429E-01   0.8660253E+00  0.5000002E+00 -0.1712065E-15
  0.5417897E-01 -0.3813147E-11 -0.3571429E-01   0.8660253E+00  0.5000002E+00 -0.1712065E-15
  0.2708947E-01  0.4692038E-01 -0.3571429E-01   0.8660253E+00  0.5000002E+00 -0.1712065E-15
 BRILLOUIN-ZONE-PRIMCELL_END
 BRILLOUIN-ZONE-CONVCELL
           4
 -0.5417897E-01  0.3813147E-11 -0.3571429E-01  -0.8660253E+00 -0.5000002E+00 -0.3418542E-26
 -0.2708947E-01 -0.4692038E-01 -0.3571429E-01  -0.8660253E+00 -0.5000002E+00 -0.3418542E-26
 -0.2708947E-01 -0.4692038E-01  0.3571429E-01  -0.8660253E+00 -0.5000002E+00 -0.3418542E-26
 -0.5417897E-01  0.3813141E-11  0.3571429E-01  -0.8660253E+00 -0.5000002E+00 -0.3418542E-26
           4
 -0.5417897E-01  0.3813147E-11  0.3571429E-01  -0.8660253E+00  0.5000002E+00  0.5603216E-16
 -0.2708947E-01  0.4692038E-01  0.3571429E-01  -0.8660253E+00  0.5000002E+00  0.5603216E-16
 -0.2708947E-01  0.4692038E-01 -0.3571429E-01  -0.8660253E+00  0.5000002E+00  0.5603216E-16
 -0.5417897E-01  0.3813147E-11 -0.3571429E-01  -0.8660253E+00  0.5000002E+00  0.5603216E-16
           4
 -0.2708947E-01 -0.4692038E-01 -0.3571429E-01  -0.3732495E-31 -0.1000000E+01  0.2793475E-16
  0.2708947E-01 -0.4692038E-01 -0.3571429E-01  -0.3732495E-31 -0.1000000E+01  0.2793475E-16
  0.2708947E-01 -0.4692038E-01  0.3571429E-01  -0.3732495E-31 -0.1000000E+01  0.2793475E-16
 -0.2708947E-01 -0.4692038E-01  0.3571429E-01  -0.3732495E-31 -0.1000000E+01  0.2793475E-16
           6
 -0.5417897E-01  0.3813147E-11 -0.3571429E-01   0.0000000E+00 -0.3411994E-15 -0.1000000E+01
 -0.2708947E-01  0.4692038E-01 -0.3571429E-01   0.0000000E+00 -0.3411994E-15 -0.1000000E+01
  0.2708947E-01  0.4692038E-01 -0.3571429E-01   0.0000000E+00 -0.3411994E-15 -0.1000000E+01
  0.5417897E-01 -0.3813153E-11 -0.3571429E-01   0.0000000E+00 -0.3411994E-15 -0.1000000E+01
  0.2708947E-01 -0.4692038E-01 -0.3571429E-01   0.0000000E+00 -0.3411994E-15 -0.1000000E+01
 -0.2708947E-01 -0.4692038E-01 -0.3571429E-01   0.0000000E+00 -0.3411994E-15 -0.1000000E+01
           6
 -0.2708947E-01 -0.4692038E-01  0.3571429E-01  -0.0000000E+00 -0.3411994E-15  0.1000000E+01
  0.2708947E-01 -0.4692038E-01  0.3571429E-01  -0.0000000E+00 -0.3411994E-15  0.1000000E+01
  0.5417897E-01 -0.3813144E-11  0.3571429E-01  -0.0000000E+00 -0.3411994E-15  0.1000000E+01
  0.2708947E-01  0.4692038E-01  0.3571429E-01  -0.0000000E+00 -0.3411994E-15  0.1000000E+01
 -0.2708947E-01  0.4692038E-01  0.3571429E-01  -0.0000000E+00 -0.3411994E-15  0.1000000E+01
 -0.5417897E-01  0.3813147E-11  0.3571429E-01  -0.0000000E+00 -0.3411994E-15  0.1000000E+01
           4
 -0.2708947E-01  0.4692038E-01  0.3571429E-01  -0.1280737E-15  0.1000000E+01  0.1120644E-15
  0.2708947E-01  0.4692038E-01  0.3571429E-01  -0.1280737E-15  0.1000000E+01  0.1120644E-15
  0.2708947E-01  0.4692038E-01 -0.3571429E-01  -0.1280737E-15  0.1000000E+01  0.1120644E-15
 -0.2708947E-01  0.4692038E-01 -0.3571429E-01  -0.1280737E-15  0.1000000E+01  0.1120644E-15
           4
  0.2708947E-01 -0.4692038E-01 -0.3571429E-01   0.8660253E+00 -0.5000002E+00 -0.4353846E-16
  0.5417897E-01 -0.3813147E-11 -0.3571429E-01   0.8660253E+00 -0.5000002E+00 -0.4353846E-16
  0.5417897E-01 -0.3813153E-11  0.3571429E-01   0.8660253E+00 -0.5000002E+00 -0.4353846E-16
  0.2708947E-01 -0.4692038E-01  0.3571429E-01   0.8660253E+00 -0.5000002E+00 -0.4353846E-16
           4
  0.2708947E-01  0.4692038E-01  0.3571429E-01   0.8660253E+00  0.5000002E+00 -0.1712065E-15
  0.5417897E-01 -0.3813134E-11  0.3571429E-01   0.8660253E+00  0.5000002E+00 -0.1712065E-15
  0.5417897E-01 -0.3813147E-11 -0.3571429E-01   0.8660253E+00  0.5000002E+00 -0.1712065E-15
  0.2708947E-01  0.4692038E-01 -0.3571429E-01   0.8660253E+00  0.5000002E+00 -0.1712065E-15
 BRILLOUIN-ZONE-CONVCELL_END
 ATOMS
    6    1.2305023000    0.7104376070    6.9999711790   -0.0050166300   -0.0005199000    0.0027777500
    6    0.0000123050    1.4208539020    6.9999711790    0.0002215300    0.0000003900   -0.0003920100
    6   -0.0025423280    2.8417015160    7.0163082530   -0.0001267300   -0.0000331900    0.0001714500
    6   -1.2304838430    3.5521347540    6.9999711790   -0.0015780700   -0.0011698400    0.0043850800
    6   -1.2320395760    4.9710897150    7.0172905210   -0.0000044200    0.0000070400   -0.0002027900
    6   -2.4609799900    5.6834156060    6.9999711790   -0.0012941300   -0.0010485100    0.0016898800
    6   -2.4622674090    7.1027756260    7.0106989020   -0.0004110200   -0.0000944800   -0.0000484400
    6   -3.6914761380    7.8146964590    6.9999711790   -0.0009655500   -0.0082781800   -0.0012951500
    6   -3.6914822900    9.2355397040    6.9999711790    0.0002562100   -0.0003543500    0.0013385700
    6   -4.9219784380    9.9459666550    6.9999711790   -0.0068085400    0.0037438800   -0.0036963800
    6    3.6914822900    0.7104376070    6.9999711790    0.0051646100   -0.0007136200    0.0036887600
    6    2.4612002910    1.4291350900    7.0249218500   -0.0000341000   -0.0003145800    0.0002361400
    6    2.4619121230    2.8393874250    7.0970000300   -0.0003880200   -0.0000660000   -0.0002716800
    6    1.2236243350    3.5587242680    7.0989285440   -0.0005592600   -0.0006009100    0.0003246900
    6    1.2060869610    4.9609089460    7.1955671300    0.0001271300   -0.0002060100    0.0002579200
    6   -0.0006060900    5.6751881570    7.1020960150    0.0006181700    0.0002519200    0.0001182500
    6   -0.0027047830    7.1060416480    7.0999139190   -0.0006853700   -0.0000846800   -0.0000556800
    6   -1.2240139080    7.8111751210    7.0378448710   -0.0003319400    0.0001733100   -0.0005402800
    6   -1.2298690650    9.2376373000    7.0106144680   -0.0002587400    0.0001442700   -0.0000888500
    6   -2.4609984480    9.9459666550    6.9999711790    0.0069141000    0.0050953700   -0.0013916800
    6    6.1524745850    0.7104376070    6.9999711790    0.0018447400   -0.0001802200   -0.0032941900
    6    4.9225835560    1.4203677590    7.0060136210    0.0000213400    0.0000421500   -0.0003786600
    6    4.9278739250    2.8406677220    7.0334762970   -0.0002395800    0.0002355400   -0.0006972100
    6    3.7010385090    3.5572428970    7.1123371960   -0.0001979000    0.0002788800   -0.0006888800
    6    3.7168716360    4.9603946500    7.2049043310    0.0003058200   -0.0001377800   -0.0002408600
    6    2.4605270350    5.6893127030    7.5722345800    0.0001997200   -0.0004765700    0.0003703000
    6    2.4608492380    7.1357276740    7.1856461990    0.0000668100    0.0001541100   -0.0000176800
    6    1.2386885100    7.8192330490    7.0975360900   -0.0000354300   -0.0002314700    0.0001157500
    6    1.2314976000    9.2386016460    7.0146903580    0.0000583800   -0.0003490700   -0.0002032300
    6   -0.0000061520    9.9459666550    6.9999711790    0.0005759400    0.0021143000    0.0013403200
    6    8.6134668800    0.7104376070    6.9999711790    0.0018475900    0.0030221400   -0.0029858500
    6    7.3848133360    1.4204740130    6.9974018860    0.0001336500   -0.0003702600    0.0002787400
    6    7.3873002180    2.8397695730    6.9986932310   -0.0001889000   -0.0003195500    0.0005891000
    6    6.1568080630    3.5504507100    7.0176359990   -0.0001680400   -0.0002930900    0.0005147800
    6    6.1560671050    4.9700033530    7.0292331220   -0.0001541400   -0.0001503500    0.0002311600
    6    4.9234713970    5.6741787350    7.1107440660    0.0003250300    0.0002614500   -0.0001985100
    6    4.9245609780    7.1046136230    7.0977055880    0.0001033600    0.0007221600   -0.0006372300
    6    3.6834261180    7.8180828020    7.0953930960    0.0001399300    0.0003642800    0.0003793200
    6    3.6906488670    9.2377453130    7.0129581240   -0.0001281700    0.0003981600    0.0003687000
    6    2.4609861430    9.9459666550    6.9999711790    0.0004574700    0.0017930000    0.0030621200
    6   11.0744468710    0.7104376070    6.9999711790    0.0001563800   -0.0002302400   -0.0031880200
    6    9.8439568750    1.4208539020    6.9999711790   -0.0021560400    0.0010425200    0.0002509100
    6    9.8439507230    2.8416971470    6.9999711790   -0.0010172000   -0.0028683800   -0.0033605300
    6    8.6151023920    3.5509996080    6.9974459720    0.0000775500   -0.0001173900    0.0001630900
    6    8.6134545760    4.9729779990    6.9999711790    0.0014535000   -0.0006564700   -0.0036075900
    6    7.3841112680    5.6836060250    7.0046881430   -0.0002410900   -0.0001351000   -0.0005429200
    6    7.3829584280    7.1042588520    6.9999711790    0.0032060200   -0.0035261800    0.0036115800
    6    6.1451127110    7.8102294440    7.0252695680    0.0004470900    0.0003331200    0.0001863700
    6    6.1524622800    9.2355397040    6.9999711790   -0.0020536800    0.0042799000    0.0029638700
    6    4.9219661330    9.9459666550    6.9999711790    0.0004746100    0.0001920700   -0.0009259200
    8    2.4549753840    5.7839286750    9.0742504300    0.0007465500   -0.0009791100    0.0004584300
    1    2.5893971070    4.8759534900    9.4198213360   -0.0009005900   -0.0001444900   -0.0009228100
 FRAMES
1      0.0000000000    0.0000000000    0.0000000000     12.3048999510    0.0000000000    0.0000000000
1      0.0000000000    0.0000000000    0.0000000000     -6.1524499750   10.6563509800    0.0000000000
1      0.0000000000    0.0000000000    0.0000000000      0.0000000000    0.0000000000   13.9999983580
1      0.0000000000    0.0000000000   13.9999983580     12.3048999510    0.0000000000   13.9999983580
1      0.0000000000    0.0000000000   13.9999983580     -6.1524499750   10.6563509800   13.9999983580
1     -6.1524499750   10.6563509800    0.0000000000      6.1524499760   10.6563509800    0.0000000000
1     -6.1524499750   10.6563509800    0.0000000000     -6.1524499750   10.6563509800   13.9999983580
1     -6.1524499750   10.6563509800   13.9999983580      6.1524499760   10.6563509800   13.9999983580
1     12.3048999510    0.0000000000    0.0000000000      6.1524499760   10.6563509800    0.0000000000
1     12.3048999510    0.0000000000    0.0000000000     12.3048999510    0.0000000000   13.9999983580
1     12.3048999510    0.0000000000   13.9999983580      6.1524499760   10.6563509800   13.9999983580
1      6.1524499760   10.6563509800    0.0000000000      6.1524499760   10.6563509800   13.9999983580
