 INFO
nunit      1    1    1
unit   cell
celltype   primcell
shape   parapipedal
 END_INFO
 DIM-GROUP
           3           9
 PRIMVEC
   12.3048999510    0.0000000000    0.0000000000
   -6.1524499750   10.6563509800    0.0000000000
    0.0000000000    0.0000000000   13.9999983580
 CONVVEC
   12.3048999510    0.0000000000    0.0000000000
   -6.1524499750   10.6563509800    0.0000000000
    0.0000000000    0.0000000000   13.9999983580
 PRIMCOORD
          53           1
  6      1.2305023000     0.7104376070     6.9999711790     0.0883131400     0.0034915100     0.1130588700
  6      0.0000123050     1.4208539020     6.9999711790    -0.0411328400     0.0782271800     0.1130588700
  6     -0.0305933900     2.8852305140     7.0916611020    -0.0000210300     0.0000887400     0.0001054900
  6     -1.2304838430     3.5521347540     6.9999711790    -0.0396638200     0.0453277900    -0.0277711700
  6     -1.2445994950     4.9828819480     7.0102588400     0.0001851400    -0.0001293800    -0.0004818600
  6     -2.4609799900     5.6834156060     6.9999711790    -0.0199308500     0.0083115900    -0.0074431300
  6     -2.4624678930     7.1070038530     6.9938331180    -0.0002731100     0.0001206800    -0.0000141900
  6     -3.6914761380     7.8146964590     6.9999711790    -0.0066712700     0.0033313600    -0.0025049200
  6     -3.6914822900     9.2355397040     6.9999711790    -0.0075305000     0.0015238300    -0.0028794300
  6     -4.9219784380     9.9459666550     6.9999711790    -0.0136059000    -0.0998394400    -0.0601624800
  6      3.6914822900     0.7104376070     6.9999711790     0.0590869300    -0.0116859800    -0.0277711700
  6      2.5139807810     1.4161206170     7.0916611020     0.0000873600     0.0000261600     0.0001054900
  6      2.7136728500     2.6728317920     7.6747626020     0.0004646600     0.0002888300    -0.0001840100
  6      0.9579048870     3.6865244260     7.6747626020     0.0000178100     0.0005468200    -0.0001840100
  6      1.1185351300     5.0444396590     7.4591519870     0.0006044500    -0.0001181000    -0.0004626200
  6     -0.0372396660     5.7254875300     7.0777901280    -0.0001293800     0.0004855500    -0.0002598100
  6     -0.0162483560     7.1378639000     7.0212458010    -0.0001305300    -0.0002862000    -0.0002268800
  6     -1.2425259840     7.8285347960     6.9902071740    -0.0005601200    -0.0002690700    -0.0006097200
  6     -1.2365350790     9.2484618400     6.9975765910    -0.0001450000     0.0004524100     0.0001636900
  6     -2.4609984480     9.9459666550     6.9999711790     0.0000689300    -0.0057966000    -0.0156735100
  6      6.1524745850     0.7104376070     6.9999711790     0.0171634700    -0.0131048300    -0.0074431300
  6      4.9375918050     1.4135866960     7.0102588400    -0.0002046200     0.0000956500    -0.0004818600
  6      4.9770459470     2.8305039390     7.0777901280     0.0004851800     0.0001307300    -0.0002598100
  6      3.8093412120     3.4908885600     7.4591519870    -0.0004045100     0.0004644200    -0.0004626200
  6      3.7754899710     4.9417870940     7.6970615050     0.0002359300     0.0003440100     0.0004438900
  6      2.3919701740     5.7405622490     7.6970615050     0.0001799600     0.0003763300     0.0004438900
  6      2.4507087640     7.1413708410     7.2772124890     0.0002306700    -0.0002481400     0.0007093900
  6      1.2212490340     7.8310605750     7.0743845170    -0.0002601200    -0.0003282000     0.0000340000
  6      1.2294523230     9.2425089580     7.0078533180     0.0000884800    -0.0004353000    -0.0002030800
  6     -0.0000061520     9.9459666550     6.9999711790    -0.0036131300     0.0128181800    -0.0049537700
  6      8.6134668800     0.7104376070     6.9999711790     0.0062206800    -0.0041118100    -0.0025049200
  6      7.3860826970     1.4209431700     6.9938331180     0.0002410700    -0.0001761800    -0.0000141900
  6      7.4009823130     2.8382194890     6.9902071740     0.0000470400    -0.0006196100    -0.0006097200
  6      6.1896985260     3.5548604670     7.0212458010    -0.0001825900    -0.0002561400    -0.0002268800
  6      6.1712821940     4.9731731380     7.0743845170    -0.0001541700    -0.0003893700     0.0000340000
  6      4.9592509150     5.6930498210     7.2772124890    -0.0003302300     0.0000757000     0.0007093900
  6      4.9321723580     7.0903067040     7.2017190800     0.0000161300     0.0003084800     0.0001406500
  6      3.6743024100     7.8165379190     7.2017190800     0.0002590900     0.0001682100     0.0001406500
  6      3.6895199420     9.2359733960     7.0433287820    -0.0000403900     0.0001316200     0.0005324200
  6      2.4609861430     9.9459666550     6.9999711790     0.0042028800     0.0047430200     0.0080148200
  6     11.0744468710     0.7104376070     6.9999711790    -0.0796605400    -0.0617027700    -0.0601624800
  6      9.8439568750     1.4208539020     6.9999711790     0.0050849200    -0.0057596900    -0.0028794300
  6      9.8439507230     2.8416971470     6.9999711790    -0.0050544700    -0.0028386100    -0.0156735100
  6      8.6276741730     3.5533606290     6.9975765910     0.0004643000     0.0001006300     0.0001636900
  6      8.6134545760     4.9729779990     6.9999711790     0.0129074400     0.0032800300    -0.0049537700
  6      7.3895312750     5.6859802700     7.0078533180    -0.0004212200    -0.0001410200    -0.0002030800
  6      7.3829584280     7.1042588520     6.9999711790     0.0020061400     0.0060113200     0.0080148200
  6      6.1538313480     7.8132032050     7.0433287820     0.0001341800     0.0000308300     0.0005324200
  6      6.1524622800     9.2355397040     6.9999711790     0.0557711100    -0.0082918200     0.0008975800
  6      4.9219661330     9.9459666550     6.9999711790    -0.0350664800     0.0441532900     0.0008975800
  8      3.1460300640     5.4490813720     8.8920602610     0.0002827400     0.0004897100     0.0002254100
  8      0.5688560230     0.9852870750     8.3668489790     0.0001597100     0.0002766300    -0.0004691500
  8      1.8150735140     3.1437980790     8.5889257030     0.0001772700     0.0003070300    -0.0002967000
 CONVCOORD
          53           1
  6      1.2305023000     0.7104376070     6.9999711790
  6      0.0000123050     1.4208539020     6.9999711790
  6     -0.0305933900     2.8852305140     7.0916611020
  6     -1.2304838430     3.5521347540     6.9999711790
  6     -1.2445994950     4.9828819480     7.0102588400
  6     -2.4609799900     5.6834156060     6.9999711790
  6     -2.4624678930     7.1070038530     6.9938331180
  6     -3.6914761380     7.8146964590     6.9999711790
  6     -3.6914822900     9.2355397040     6.9999711790
  6     -4.9219784380     9.9459666550     6.9999711790
  6      3.6914822900     0.7104376070     6.9999711790
  6      2.5139807810     1.4161206170     7.0916611020
  6      2.7136728500     2.6728317920     7.6747626020
  6      0.9579048870     3.6865244260     7.6747626020
  6      1.1185351300     5.0444396590     7.4591519870
  6     -0.0372396660     5.7254875300     7.0777901280
  6     -0.0162483560     7.1378639000     7.0212458010
  6     -1.2425259840     7.8285347960     6.9902071740
  6     -1.2365350790     9.2484618400     6.9975765910
  6     -2.4609984480     9.9459666550     6.9999711790
  6      6.1524745850     0.7104376070     6.9999711790
  6      4.9375918050     1.4135866960     7.0102588400
  6      4.9770459470     2.8305039390     7.0777901280
  6      3.8093412120     3.4908885600     7.4591519870
  6      3.7754899710     4.9417870940     7.6970615050
  6      2.3919701740     5.7405622490     7.6970615050
  6      2.4507087640     7.1413708410     7.2772124890
  6      1.2212490340     7.8310605750     7.0743845170
  6      1.2294523230     9.2425089580     7.0078533180
  6     -0.0000061520     9.9459666550     6.9999711790
  6      8.6134668800     0.7104376070     6.9999711790
  6      7.3860826970     1.4209431700     6.9938331180
  6      7.4009823130     2.8382194890     6.9902071740
  6      6.1896985260     3.5548604670     7.0212458010
  6      6.1712821940     4.9731731380     7.0743845170
  6      4.9592509150     5.6930498210     7.2772124890
  6      4.9321723580     7.0903067040     7.2017190800
  6      3.6743024100     7.8165379190     7.2017190800
  6      3.6895199420     9.2359733960     7.0433287820
  6      2.4609861430     9.9459666550     6.9999711790
  6     11.0744468710     0.7104376070     6.9999711790
  6      9.8439568750     1.4208539020     6.9999711790
  6      9.8439507230     2.8416971470     6.9999711790
  6      8.6276741730     3.5533606290     6.9975765910
  6      8.6134545760     4.9729779990     6.9999711790
  6      7.3895312750     5.6859802700     7.0078533180
  6      7.3829584280     7.1042588520     6.9999711790
  6      6.1538313480     7.8132032050     7.0433287820
  6      6.1524622800     9.2355397040     6.9999711790
  6      4.9219661330     9.9459666550     6.9999711790
  8      3.1460300640     5.4490813720     8.8920602610
  8      0.5688560230     0.9852870750     8.3668489790
  8      1.8150735140     3.1437980790     8.5889257030
 RECIP-PRIMVEC
    0.0812684381    0.0469203765   -0.0000000000

    0.0000000000    0.0938407530    0.0000000000

    0.0000000000   -0.0000000000    0.0714285798

 RECIP-CONVVEC
    0.0812684381    0.0469203765   -0.0000000000

    0.0000000000    0.0938407530    0.0000000000

    0.0000000000   -0.0000000000    0.0714285798

 WIGNER-SEITZ-PRIMCELL
           4
  0.6152450E+01 -0.3552115E+01 -0.6999999E+01   0.1000000E+01 -0.0000000E+00 -0.0000000E+00
  0.6152450E+01  0.3552115E+01 -0.6999999E+01   0.1000000E+01 -0.0000000E+00 -0.0000000E+00
  0.6152450E+01  0.3552115E+01  0.6999999E+01   0.1000000E+01 -0.0000000E+00 -0.0000000E+00
  0.6152450E+01 -0.3552115E+01  0.6999999E+01   0.1000000E+01 -0.0000000E+00 -0.0000000E+00
           4
  0.6152450E+01 -0.3552115E+01  0.6999999E+01   0.5000002E+00 -0.8660253E+00 -0.1435454E-15
 -0.4999987E-09 -0.7104236E+01  0.6999999E+01   0.5000002E+00 -0.8660253E+00 -0.1435454E-15
 -0.5000007E-09 -0.7104236E+01 -0.6999999E+01   0.5000002E+00 -0.8660253E+00 -0.1435454E-15
  0.6152450E+01 -0.3552115E+01 -0.6999999E+01   0.5000002E+00 -0.8660253E+00 -0.1435454E-15
           4
  0.6152450E+01  0.3552115E+01 -0.6999999E+01   0.5000002E+00  0.8660253E+00 -0.7210489E-16
  0.4999987E-09  0.7104236E+01 -0.6999999E+01   0.5000002E+00  0.8660253E+00 -0.7210489E-16
  0.5000007E-09  0.7104236E+01  0.6999999E+01   0.5000002E+00  0.8660253E+00 -0.7210489E-16
  0.6152450E+01  0.3552115E+01  0.6999999E+01   0.5000002E+00  0.8660253E+00 -0.7210489E-16
           6
 -0.6152450E+01 -0.3552115E+01 -0.6999999E+01  -0.1625643E-15  0.0000000E+00 -0.1000000E+01
 -0.6152450E+01  0.3552115E+01 -0.6999999E+01  -0.1625643E-15  0.0000000E+00 -0.1000000E+01
  0.4999987E-09  0.7104236E+01 -0.6999999E+01  -0.1625643E-15  0.0000000E+00 -0.1000000E+01
  0.6152450E+01  0.3552115E+01 -0.6999999E+01  -0.1625643E-15  0.0000000E+00 -0.1000000E+01
  0.6152450E+01 -0.3552115E+01 -0.6999999E+01  -0.1625643E-15  0.0000000E+00 -0.1000000E+01
 -0.5000007E-09 -0.7104236E+01 -0.6999999E+01  -0.1625643E-15  0.0000000E+00 -0.1000000E+01
           6
 -0.5000007E-09 -0.7104236E+01  0.6999999E+01  -0.3251285E-15 -0.0000000E+00  0.1000000E+01
  0.6152450E+01 -0.3552115E+01  0.6999999E+01  -0.3251285E-15 -0.0000000E+00  0.1000000E+01
  0.6152450E+01  0.3552115E+01  0.6999999E+01  -0.3251285E-15 -0.0000000E+00  0.1000000E+01
  0.4999987E-09  0.7104236E+01  0.6999999E+01  -0.3251285E-15 -0.0000000E+00  0.1000000E+01
 -0.6152450E+01  0.3552115E+01  0.6999999E+01  -0.3251285E-15 -0.0000000E+00  0.1000000E+01
 -0.6152450E+01 -0.3552115E+01  0.6999999E+01  -0.3251285E-15 -0.0000000E+00  0.1000000E+01
           4
 -0.6152450E+01 -0.3552115E+01  0.6999999E+01  -0.5000002E+00 -0.8660253E+00  0.0000000E+00
 -0.6152450E+01 -0.3552115E+01 -0.6999999E+01  -0.5000002E+00 -0.8660253E+00  0.0000000E+00
 -0.5000007E-09 -0.7104236E+01 -0.6999999E+01  -0.5000002E+00 -0.8660253E+00  0.0000000E+00
 -0.4999997E-09 -0.7104236E+01  0.6999999E+01  -0.5000002E+00 -0.8660253E+00  0.0000000E+00
           4
  0.4999997E-09  0.7104236E+01  0.6999999E+01  -0.5000002E+00  0.8660253E+00  0.1428811E-15
  0.4999987E-09  0.7104236E+01 -0.6999999E+01  -0.5000002E+00  0.8660253E+00  0.1428811E-15
 -0.6152450E+01  0.3552115E+01 -0.6999999E+01  -0.5000002E+00  0.8660253E+00  0.1428811E-15
 -0.6152450E+01  0.3552115E+01  0.6999999E+01  -0.5000002E+00  0.8660253E+00  0.1428811E-15
           4
 -0.6152450E+01 -0.3552115E+01  0.6999999E+01  -0.1000000E+01  0.0000000E+00  0.6344132E-16
 -0.6152450E+01  0.3552115E+01  0.6999999E+01  -0.1000000E+01  0.0000000E+00  0.6344132E-16
 -0.6152450E+01  0.3552115E+01 -0.6999999E+01  -0.1000000E+01  0.0000000E+00  0.6344132E-16
 -0.6152450E+01 -0.3552115E+01 -0.6999999E+01  -0.1000000E+01  0.0000000E+00  0.6344132E-16
 WIGNER-SEITZ-PRIMCELL_END
 WIGNER-SEITZ-CONVCELL
           4
  0.6152450E+01 -0.3552115E+01 -0.6999999E+01   0.1000000E+01 -0.0000000E+00 -0.0000000E+00
  0.6152450E+01  0.3552115E+01 -0.6999999E+01   0.1000000E+01 -0.0000000E+00 -0.0000000E+00
  0.6152450E+01  0.3552115E+01  0.6999999E+01   0.1000000E+01 -0.0000000E+00 -0.0000000E+00
  0.6152450E+01 -0.3552115E+01  0.6999999E+01   0.1000000E+01 -0.0000000E+00 -0.0000000E+00
           4
  0.6152450E+01 -0.3552115E+01  0.6999999E+01   0.5000002E+00 -0.8660253E+00 -0.1435454E-15
 -0.4999987E-09 -0.7104236E+01  0.6999999E+01   0.5000002E+00 -0.8660253E+00 -0.1435454E-15
 -0.5000007E-09 -0.7104236E+01 -0.6999999E+01   0.5000002E+00 -0.8660253E+00 -0.1435454E-15
  0.6152450E+01 -0.3552115E+01 -0.6999999E+01   0.5000002E+00 -0.8660253E+00 -0.1435454E-15
           4
  0.6152450E+01  0.3552115E+01 -0.6999999E+01   0.5000002E+00  0.8660253E+00 -0.7210489E-16
  0.4999987E-09  0.7104236E+01 -0.6999999E+01   0.5000002E+00  0.8660253E+00 -0.7210489E-16
  0.5000007E-09  0.7104236E+01  0.6999999E+01   0.5000002E+00  0.8660253E+00 -0.7210489E-16
  0.6152450E+01  0.3552115E+01  0.6999999E+01   0.5000002E+00  0.8660253E+00 -0.7210489E-16
           6
 -0.6152450E+01 -0.3552115E+01 -0.6999999E+01  -0.1625643E-15  0.0000000E+00 -0.1000000E+01
 -0.6152450E+01  0.3552115E+01 -0.6999999E+01  -0.1625643E-15  0.0000000E+00 -0.1000000E+01
  0.4999987E-09  0.7104236E+01 -0.6999999E+01  -0.1625643E-15  0.0000000E+00 -0.1000000E+01
  0.6152450E+01  0.3552115E+01 -0.6999999E+01  -0.1625643E-15  0.0000000E+00 -0.1000000E+01
  0.6152450E+01 -0.3552115E+01 -0.6999999E+01  -0.1625643E-15  0.0000000E+00 -0.1000000E+01
 -0.5000007E-09 -0.7104236E+01 -0.6999999E+01  -0.1625643E-15  0.0000000E+00 -0.1000000E+01
           6
 -0.5000007E-09 -0.7104236E+01  0.6999999E+01  -0.3251285E-15 -0.0000000E+00  0.1000000E+01
  0.6152450E+01 -0.3552115E+01  0.6999999E+01  -0.3251285E-15 -0.0000000E+00  0.1000000E+01
  0.6152450E+01  0.3552115E+01  0.6999999E+01  -0.3251285E-15 -0.0000000E+00  0.1000000E+01
  0.4999987E-09  0.7104236E+01  0.6999999E+01  -0.3251285E-15 -0.0000000E+00  0.1000000E+01
 -0.6152450E+01  0.3552115E+01  0.6999999E+01  -0.3251285E-15 -0.0000000E+00  0.1000000E+01
 -0.6152450E+01 -0.3552115E+01  0.6999999E+01  -0.3251285E-15 -0.0000000E+00  0.1000000E+01
           4
 -0.6152450E+01 -0.3552115E+01  0.6999999E+01  -0.5000002E+00 -0.8660253E+00  0.0000000E+00
 -0.6152450E+01 -0.3552115E+01 -0.6999999E+01  -0.5000002E+00 -0.8660253E+00  0.0000000E+00
 -0.5000007E-09 -0.7104236E+01 -0.6999999E+01  -0.5000002E+00 -0.8660253E+00  0.0000000E+00
 -0.4999997E-09 -0.7104236E+01  0.6999999E+01  -0.5000002E+00 -0.8660253E+00  0.0000000E+00
           4
  0.4999997E-09  0.7104236E+01  0.6999999E+01  -0.5000002E+00  0.8660253E+00  0.1428811E-15
  0.4999987E-09  0.7104236E+01 -0.6999999E+01  -0.5000002E+00  0.8660253E+00  0.1428811E-15
 -0.6152450E+01  0.3552115E+01 -0.6999999E+01  -0.5000002E+00  0.8660253E+00  0.1428811E-15
 -0.6152450E+01  0.3552115E+01  0.6999999E+01  -0.5000002E+00  0.8660253E+00  0.1428811E-15
           4
 -0.6152450E+01 -0.3552115E+01  0.6999999E+01  -0.1000000E+01  0.0000000E+00  0.6344132E-16
 -0.6152450E+01  0.3552115E+01  0.6999999E+01  -0.1000000E+01  0.0000000E+00  0.6344132E-16
 -0.6152450E+01  0.3552115E+01 -0.6999999E+01  -0.1000000E+01  0.0000000E+00  0.6344132E-16
 -0.6152450E+01 -0.3552115E+01 -0.6999999E+01  -0.1000000E+01  0.0000000E+00  0.6344132E-16
 WIGNER-SEITZ-CONVCELL_END
 BRILLOUIN-ZONE-PRIMCELL
           4
 -0.5417897E-01  0.3813147E-11 -0.3571429E-01  -0.8660253E+00 -0.5000002E+00 -0.3418542E-26
 -0.2708947E-01 -0.4692038E-01 -0.3571429E-01  -0.8660253E+00 -0.5000002E+00 -0.3418542E-26
 -0.2708947E-01 -0.4692038E-01  0.3571429E-01  -0.8660253E+00 -0.5000002E+00 -0.3418542E-26
 -0.5417897E-01  0.3813141E-11  0.3571429E-01  -0.8660253E+00 -0.5000002E+00 -0.3418542E-26
           4
 -0.5417897E-01  0.3813147E-11  0.3571429E-01  -0.8660253E+00  0.5000002E+00  0.5603216E-16
 -0.2708947E-01  0.4692038E-01  0.3571429E-01  -0.8660253E+00  0.5000002E+00  0.5603216E-16
 -0.2708947E-01  0.4692038E-01 -0.3571429E-01  -0.8660253E+00  0.5000002E+00  0.5603216E-16
 -0.5417897E-01  0.3813147E-11 -0.3571429E-01  -0.8660253E+00  0.5000002E+00  0.5603216E-16
           4
 -0.2708947E-01 -0.4692038E-01 -0.3571429E-01  -0.3732495E-31 -0.1000000E+01  0.2793475E-16
  0.2708947E-01 -0.4692038E-01 -0.3571429E-01  -0.3732495E-31 -0.1000000E+01  0.2793475E-16
  0.2708947E-01 -0.4692038E-01  0.3571429E-01  -0.3732495E-31 -0.1000000E+01  0.2793475E-16
 -0.2708947E-01 -0.4692038E-01  0.3571429E-01  -0.3732495E-31 -0.1000000E+01  0.2793475E-16
           6
 -0.5417897E-01  0.3813147E-11 -0.3571429E-01   0.0000000E+00 -0.3411994E-15 -0.1000000E+01
 -0.2708947E-01  0.4692038E-01 -0.3571429E-01   0.0000000E+00 -0.3411994E-15 -0.1000000E+01
  0.2708947E-01  0.4692038E-01 -0.3571429E-01   0.0000000E+00 -0.3411994E-15 -0.1000000E+01
  0.5417897E-01 -0.3813153E-11 -0.3571429E-01   0.0000000E+00 -0.3411994E-15 -0.1000000E+01
  0.2708947E-01 -0.4692038E-01 -0.3571429E-01   0.0000000E+00 -0.3411994E-15 -0.1000000E+01
 -0.2708947E-01 -0.4692038E-01 -0.3571429E-01   0.0000000E+00 -0.3411994E-15 -0.1000000E+01
           6
 -0.2708947E-01 -0.4692038E-01  0.3571429E-01  -0.0000000E+00 -0.3411994E-15  0.1000000E+01
  0.2708947E-01 -0.4692038E-01  0.3571429E-01  -0.0000000E+00 -0.3411994E-15  0.1000000E+01
  0.5417897E-01 -0.3813144E-11  0.3571429E-01  -0.0000000E+00 -0.3411994E-15  0.1000000E+01
  0.2708947E-01  0.4692038E-01  0.3571429E-01  -0.0000000E+00 -0.3411994E-15  0.1000000E+01
 -0.2708947E-01  0.4692038E-01  0.3571429E-01  -0.0000000E+00 -0.3411994E-15  0.1000000E+01
 -0.5417897E-01  0.3813147E-11  0.3571429E-01  -0.0000000E+00 -0.3411994E-15  0.1000000E+01
           4
 -0.2708947E-01  0.4692038E-01  0.3571429E-01  -0.1280737E-15  0.1000000E+01  0.1120644E-15
  0.2708947E-01  0.4692038E-01  0.3571429E-01  -0.1280737E-15  0.1000000E+01  0.1120644E-15
  0.2708947E-01  0.4692038E-01 -0.3571429E-01  -0.1280737E-15  0.1000000E+01  0.1120644E-15
 -0.2708947E-01  0.4692038E-01 -0.3571429E-01  -0.1280737E-15  0.1000000E+01  0.1120644E-15
           4
  0.2708947E-01 -0.4692038E-01 -0.3571429E-01   0.8660253E+00 -0.5000002E+00 -0.4353846E-16
  0.5417897E-01 -0.3813147E-11 -0.3571429E-01   0.8660253E+00 -0.5000002E+00 -0.4353846E-16
  0.5417897E-01 -0.3813153E-11  0.3571429E-01   0.8660253E+00 -0.5000002E+00 -0.4353846E-16
  0.2708947E-01 -0.4692038E-01  0.3571429E-01   0.8660253E+00 -0.5000002E+00 -0.4353846E-16
           4
  0.2708947E-01  0.4692038E-01  0.3571429E-01   0.8660253E+00  0.5000002E+00 -0.1712065E-15
  0.5417897E-01 -0.3813134E-11  0.3571429E-01   0.8660253E+00  0.5000002E+00 -0.1712065E-15
  0.5417897E-01 -0.3813147E-11 -0.3571429E-01   0.8660253E+00  0.5000002E+00 -0.1712065E-15
  0.2708947E-01  0.4692038E-01 -0.3571429E-01   0.8660253E+00  0.5000002E+00 -0.1712065E-15
 BRILLOUIN-ZONE-PRIMCELL_END
 BRILLOUIN-ZONE-CONVCELL
           4
 -0.5417897E-01  0.3813147E-11 -0.3571429E-01  -0.8660253E+00 -0.5000002E+00 -0.3418542E-26
 -0.2708947E-01 -0.4692038E-01 -0.3571429E-01  -0.8660253E+00 -0.5000002E+00 -0.3418542E-26
 -0.2708947E-01 -0.4692038E-01  0.3571429E-01  -0.8660253E+00 -0.5000002E+00 -0.3418542E-26
 -0.5417897E-01  0.3813141E-11  0.3571429E-01  -0.8660253E+00 -0.5000002E+00 -0.3418542E-26
           4
 -0.5417897E-01  0.3813147E-11  0.3571429E-01  -0.8660253E+00  0.5000002E+00  0.5603216E-16
 -0.2708947E-01  0.4692038E-01  0.3571429E-01  -0.8660253E+00  0.5000002E+00  0.5603216E-16
 -0.2708947E-01  0.4692038E-01 -0.3571429E-01  -0.8660253E+00  0.5000002E+00  0.5603216E-16
 -0.5417897E-01  0.3813147E-11 -0.3571429E-01  -0.8660253E+00  0.5000002E+00  0.5603216E-16
           4
 -0.2708947E-01 -0.4692038E-01 -0.3571429E-01  -0.3732495E-31 -0.1000000E+01  0.2793475E-16
  0.2708947E-01 -0.4692038E-01 -0.3571429E-01  -0.3732495E-31 -0.1000000E+01  0.2793475E-16
  0.2708947E-01 -0.4692038E-01  0.3571429E-01  -0.3732495E-31 -0.1000000E+01  0.2793475E-16
 -0.2708947E-01 -0.4692038E-01  0.3571429E-01  -0.3732495E-31 -0.1000000E+01  0.2793475E-16
           6
 -0.5417897E-01  0.3813147E-11 -0.3571429E-01   0.0000000E+00 -0.3411994E-15 -0.1000000E+01
 -0.2708947E-01  0.4692038E-01 -0.3571429E-01   0.0000000E+00 -0.3411994E-15 -0.1000000E+01
  0.2708947E-01  0.4692038E-01 -0.3571429E-01   0.0000000E+00 -0.3411994E-15 -0.1000000E+01
  0.5417897E-01 -0.3813153E-11 -0.3571429E-01   0.0000000E+00 -0.3411994E-15 -0.1000000E+01
  0.2708947E-01 -0.4692038E-01 -0.3571429E-01   0.0000000E+00 -0.3411994E-15 -0.1000000E+01
 -0.2708947E-01 -0.4692038E-01 -0.3571429E-01   0.0000000E+00 -0.3411994E-15 -0.1000000E+01
           6
 -0.2708947E-01 -0.4692038E-01  0.3571429E-01  -0.0000000E+00 -0.3411994E-15  0.1000000E+01
  0.2708947E-01 -0.4692038E-01  0.3571429E-01  -0.0000000E+00 -0.3411994E-15  0.1000000E+01
  0.5417897E-01 -0.3813144E-11  0.3571429E-01  -0.0000000E+00 -0.3411994E-15  0.1000000E+01
  0.2708947E-01  0.4692038E-01  0.3571429E-01  -0.0000000E+00 -0.3411994E-15  0.1000000E+01
 -0.2708947E-01  0.4692038E-01  0.3571429E-01  -0.0000000E+00 -0.3411994E-15  0.1000000E+01
 -0.5417897E-01  0.3813147E-11  0.3571429E-01  -0.0000000E+00 -0.3411994E-15  0.1000000E+01
           4
 -0.2708947E-01  0.4692038E-01  0.3571429E-01  -0.1280737E-15  0.1000000E+01  0.1120644E-15
  0.2708947E-01  0.4692038E-01  0.3571429E-01  -0.1280737E-15  0.1000000E+01  0.1120644E-15
  0.2708947E-01  0.4692038E-01 -0.3571429E-01  -0.1280737E-15  0.1000000E+01  0.1120644E-15
 -0.2708947E-01  0.4692038E-01 -0.3571429E-01  -0.1280737E-15  0.1000000E+01  0.1120644E-15
           4
  0.2708947E-01 -0.4692038E-01 -0.3571429E-01   0.8660253E+00 -0.5000002E+00 -0.4353846E-16
  0.5417897E-01 -0.3813147E-11 -0.3571429E-01   0.8660253E+00 -0.5000002E+00 -0.4353846E-16
  0.5417897E-01 -0.3813153E-11  0.3571429E-01   0.8660253E+00 -0.5000002E+00 -0.4353846E-16
  0.2708947E-01 -0.4692038E-01  0.3571429E-01   0.8660253E+00 -0.5000002E+00 -0.4353846E-16
           4
  0.2708947E-01  0.4692038E-01  0.3571429E-01   0.8660253E+00  0.5000002E+00 -0.1712065E-15
  0.5417897E-01 -0.3813134E-11  0.3571429E-01   0.8660253E+00  0.5000002E+00 -0.1712065E-15
  0.5417897E-01 -0.3813147E-11 -0.3571429E-01   0.8660253E+00  0.5000002E+00 -0.1712065E-15
  0.2708947E-01  0.4692038E-01 -0.3571429E-01   0.8660253E+00  0.5000002E+00 -0.1712065E-15
 BRILLOUIN-ZONE-CONVCELL_END
 ATOMS
    6    1.2305023000    0.7104376070    6.9999711790    0.0883131400    0.0034915100    0.1130588700
    6    0.0000123050    1.4208539020    6.9999711790   -0.0411328400    0.0782271800    0.1130588700
    6   -0.0305933900    2.8852305140    7.0916611020   -0.0000210300    0.0000887400    0.0001054900
    6   -1.2304838430    3.5521347540    6.9999711790   -0.0396638200    0.0453277900   -0.0277711700
    6   -1.2445994950    4.9828819480    7.0102588400    0.0001851400   -0.0001293800   -0.0004818600
    6   -2.4609799900    5.6834156060    6.9999711790   -0.0199308500    0.0083115900   -0.0074431300
    6   -2.4624678930    7.1070038530    6.9938331180   -0.0002731100    0.0001206800   -0.0000141900
    6   -3.6914761380    7.8146964590    6.9999711790   -0.0066712700    0.0033313600   -0.0025049200
    6   -3.6914822900    9.2355397040    6.9999711790   -0.0075305000    0.0015238300   -0.0028794300
    6   -4.9219784380    9.9459666550    6.9999711790   -0.0136059000   -0.0998394400   -0.0601624800
    6    3.6914822900    0.7104376070    6.9999711790    0.0590869300   -0.0116859800   -0.0277711700
    6    2.5139807810    1.4161206170    7.0916611020    0.0000873600    0.0000261600    0.0001054900
    6    2.7136728500    2.6728317920    7.6747626020    0.0004646600    0.0002888300   -0.0001840100
    6    0.9579048870    3.6865244260    7.6747626020    0.0000178100    0.0005468200   -0.0001840100
    6    1.1185351300    5.0444396590    7.4591519870    0.0006044500   -0.0001181000   -0.0004626200
    6   -0.0372396660    5.7254875300    7.0777901280   -0.0001293800    0.0004855500   -0.0002598100
    6   -0.0162483560    7.1378639000    7.0212458010   -0.0001305300   -0.0002862000   -0.0002268800
    6   -1.2425259840    7.8285347960    6.9902071740   -0.0005601200   -0.0002690700   -0.0006097200
    6   -1.2365350790    9.2484618400    6.9975765910   -0.0001450000    0.0004524100    0.0001636900
    6   -2.4609984480    9.9459666550    6.9999711790    0.0000689300   -0.0057966000   -0.0156735100
    6    6.1524745850    0.7104376070    6.9999711790    0.0171634700   -0.0131048300   -0.0074431300
    6    4.9375918050    1.4135866960    7.0102588400   -0.0002046200    0.0000956500   -0.0004818600
    6    4.9770459470    2.8305039390    7.0777901280    0.0004851800    0.0001307300   -0.0002598100
    6    3.8093412120    3.4908885600    7.4591519870   -0.0004045100    0.0004644200   -0.0004626200
    6    3.7754899710    4.9417870940    7.6970615050    0.0002359300    0.0003440100    0.0004438900
    6    2.3919701740    5.7405622490    7.6970615050    0.0001799600    0.0003763300    0.0004438900
    6    2.4507087640    7.1413708410    7.2772124890    0.0002306700   -0.0002481400    0.0007093900
    6    1.2212490340    7.8310605750    7.0743845170   -0.0002601200   -0.0003282000    0.0000340000
    6    1.2294523230    9.2425089580    7.0078533180    0.0000884800   -0.0004353000   -0.0002030800
    6   -0.0000061520    9.9459666550    6.9999711790   -0.0036131300    0.0128181800   -0.0049537700
    6    8.6134668800    0.7104376070    6.9999711790    0.0062206800   -0.0041118100   -0.0025049200
    6    7.3860826970    1.4209431700    6.9938331180    0.0002410700   -0.0001761800   -0.0000141900
    6    7.4009823130    2.8382194890    6.9902071740    0.0000470400   -0.0006196100   -0.0006097200
    6    6.1896985260    3.5548604670    7.0212458010   -0.0001825900   -0.0002561400   -0.0002268800
    6    6.1712821940    4.9731731380    7.0743845170   -0.0001541700   -0.0003893700    0.0000340000
    6    4.9592509150    5.6930498210    7.2772124890   -0.0003302300    0.0000757000    0.0007093900
    6    4.9321723580    7.0903067040    7.2017190800    0.0000161300    0.0003084800    0.0001406500
    6    3.6743024100    7.8165379190    7.2017190800    0.0002590900    0.0001682100    0.0001406500
    6    3.6895199420    9.2359733960    7.0433287820   -0.0000403900    0.0001316200    0.0005324200
    6    2.4609861430    9.9459666550    6.9999711790    0.0042028800    0.0047430200    0.0080148200
    6   11.0744468710    0.7104376070    6.9999711790   -0.0796605400   -0.0617027700   -0.0601624800
    6    9.8439568750    1.4208539020    6.9999711790    0.0050849200   -0.0057596900   -0.0028794300
    6    9.8439507230    2.8416971470    6.9999711790   -0.0050544700   -0.0028386100   -0.0156735100
    6    8.6276741730    3.5533606290    6.9975765910    0.0004643000    0.0001006300    0.0001636900
    6    8.6134545760    4.9729779990    6.9999711790    0.0129074400    0.0032800300   -0.0049537700
    6    7.3895312750    5.6859802700    7.0078533180   -0.0004212200   -0.0001410200   -0.0002030800
    6    7.3829584280    7.1042588520    6.9999711790    0.0020061400    0.0060113200    0.0080148200
    6    6.1538313480    7.8132032050    7.0433287820    0.0001341800    0.0000308300    0.0005324200
    6    6.1524622800    9.2355397040    6.9999711790    0.0557711100   -0.0082918200    0.0008975800
    6    4.9219661330    9.9459666550    6.9999711790   -0.0350664800    0.0441532900    0.0008975800
    8    3.1460300640    5.4490813720    8.8920602610    0.0002827400    0.0004897100    0.0002254100
    8    0.5688560230    0.9852870750    8.3668489790    0.0001597100    0.0002766300   -0.0004691500
    8    1.8150735140    3.1437980790    8.5889257030    0.0001772700    0.0003070300   -0.0002967000
 FRAMES
1      0.0000000000    0.0000000000    0.0000000000     12.3048999510    0.0000000000    0.0000000000
1      0.0000000000    0.0000000000    0.0000000000     -6.1524499750   10.6563509800    0.0000000000
1      0.0000000000    0.0000000000    0.0000000000      0.0000000000    0.0000000000   13.9999983580
1      0.0000000000    0.0000000000   13.9999983580     12.3048999510    0.0000000000   13.9999983580
1      0.0000000000    0.0000000000   13.9999983580     -6.1524499750   10.6563509800   13.9999983580
1     -6.1524499750   10.6563509800    0.0000000000      6.1524499760   10.6563509800    0.0000000000
1     -6.1524499750   10.6563509800    0.0000000000     -6.1524499750   10.6563509800   13.9999983580
1     -6.1524499750   10.6563509800   13.9999983580      6.1524499760   10.6563509800   13.9999983580
1     12.3048999510    0.0000000000    0.0000000000      6.1524499760   10.6563509800    0.0000000000
1     12.3048999510    0.0000000000    0.0000000000     12.3048999510    0.0000000000   13.9999983580
1     12.3048999510    0.0000000000   13.9999983580      6.1524499760   10.6563509800   13.9999983580
1      6.1524499760   10.6563509800    0.0000000000      6.1524499760   10.6563509800   13.9999983580
