 INFO
nunit      1    1    1
unit   cell
celltype   primcell
shape   parapipedal
 END_INFO
 DIM-GROUP
           3           1
 PRIMVEC
    2.4609900000    0.0000000000    0.0000000000
   -1.2305102380    2.1328528600    0.0000000000
    0.0000000000    0.0000000000   14.0000000000
 CONVVEC
    2.4609900000    0.0000000000    0.0000000000
   -1.2305102380    2.1328528600    0.0000000000
    0.0000000000    0.0000000000   14.0000000000
 PRIMCOORD
           2           1
  6      1.2304940000     0.7100720000     6.9999750000
  6     -0.0000010000     1.4212100000     6.9999750000
 CONVCOORD
           2           1
  6      1.2304940000     0.7100720000     6.9999750000
  6     -0.0000010000     1.4212100000     6.9999750000
 RECIP-PRIMVEC
    0.4063405378    0.2344307013   -0.0000000000

    0.0000000000    0.4688555965    0.0000000000

    0.0000000000   -0.0000000000    0.0714285714

 RECIP-CONVVEC
    0.4063405378    0.2344307013   -0.0000000000

    0.0000000000    0.4688555965    0.0000000000

    0.0000000000   -0.0000000000    0.0714285714

 WIGNER-SEITZ-PRIMCELL
           4
 -0.1230495E+01  0.7114751E+00 -0.7000000E+01  -0.1000000E+01 -0.0000000E+00 -0.0000000E+00
 -0.1230495E+01 -0.7114751E+00 -0.7000000E+01  -0.1000000E+01 -0.0000000E+00 -0.0000000E+00
 -0.1230495E+01 -0.7114751E+00  0.7000000E+01  -0.1000000E+01 -0.0000000E+00 -0.0000000E+00
 -0.1230495E+01  0.7114751E+00  0.7000000E+01  -0.1000000E+01 -0.0000000E+00 -0.0000000E+00
           4
 -0.1230495E+01  0.7114751E+00  0.7000000E+01  -0.4997280E+00  0.8661824E+00  0.0000000E+00
 -0.1523800E-04  0.1421378E+01  0.7000000E+01  -0.4997280E+00  0.8661824E+00  0.0000000E+00
 -0.1523800E-04  0.1421378E+01 -0.7000000E+01  -0.4997280E+00  0.8661824E+00  0.0000000E+00
 -0.1230495E+01  0.7114751E+00 -0.7000000E+01  -0.4997280E+00  0.8661824E+00  0.0000000E+00
           4
 -0.1230495E+01 -0.7114751E+00 -0.7000000E+01  -0.4997187E+00 -0.8661877E+00 -0.0000000E+00
  0.1523800E-04 -0.1421378E+01 -0.7000000E+01  -0.4997187E+00 -0.8661877E+00 -0.0000000E+00
  0.1523800E-04 -0.1421378E+01  0.7000000E+01  -0.4997187E+00 -0.8661877E+00 -0.0000000E+00
 -0.1230495E+01 -0.7114751E+00  0.7000000E+01  -0.4997187E+00 -0.8661877E+00 -0.0000000E+00
           6
 -0.1230495E+01 -0.7114751E+00 -0.7000000E+01   0.0000000E+00  0.0000000E+00 -0.1000000E+01
 -0.1230495E+01  0.7114751E+00 -0.7000000E+01   0.0000000E+00  0.0000000E+00 -0.1000000E+01
 -0.1523800E-04  0.1421378E+01 -0.7000000E+01   0.0000000E+00  0.0000000E+00 -0.1000000E+01
  0.1230495E+01  0.7114751E+00 -0.7000000E+01   0.0000000E+00  0.0000000E+00 -0.1000000E+01
  0.1230495E+01 -0.7114751E+00 -0.7000000E+01   0.0000000E+00  0.0000000E+00 -0.1000000E+01
  0.1523800E-04 -0.1421378E+01 -0.7000000E+01   0.0000000E+00  0.0000000E+00 -0.1000000E+01
           6
  0.1523800E-04 -0.1421378E+01  0.7000000E+01  -0.0000000E+00 -0.0000000E+00  0.1000000E+01
  0.1230495E+01 -0.7114751E+00  0.7000000E+01  -0.0000000E+00 -0.0000000E+00  0.1000000E+01
  0.1230495E+01  0.7114751E+00  0.7000000E+01  -0.0000000E+00 -0.0000000E+00  0.1000000E+01
 -0.1523800E-04  0.1421378E+01  0.7000000E+01  -0.0000000E+00 -0.0000000E+00  0.1000000E+01
 -0.1230495E+01  0.7114751E+00  0.7000000E+01  -0.0000000E+00 -0.0000000E+00  0.1000000E+01
 -0.1230495E+01 -0.7114751E+00  0.7000000E+01  -0.0000000E+00 -0.0000000E+00  0.1000000E+01
           4
  0.1230495E+01  0.7114751E+00  0.7000000E+01   0.4997187E+00  0.8661877E+00 -0.1563029E-15
  0.1230495E+01  0.7114751E+00 -0.7000000E+01   0.4997187E+00  0.8661877E+00 -0.1563029E-15
 -0.1523800E-04  0.1421378E+01 -0.7000000E+01   0.4997187E+00  0.8661877E+00 -0.1563029E-15
 -0.1523800E-04  0.1421378E+01  0.7000000E+01   0.4997187E+00  0.8661877E+00 -0.1563029E-15
           4
  0.1523800E-04 -0.1421378E+01 -0.7000000E+01   0.4997280E+00 -0.8661824E+00  0.2145161E-16
  0.1230495E+01 -0.7114751E+00 -0.7000000E+01   0.4997280E+00 -0.8661824E+00  0.2145161E-16
  0.1230495E+01 -0.7114751E+00  0.7000000E+01   0.4997280E+00 -0.8661824E+00  0.2145161E-16
  0.1523800E-04 -0.1421378E+01  0.7000000E+01   0.4997280E+00 -0.8661824E+00  0.2145161E-16
           4
  0.1230495E+01  0.7114751E+00  0.7000000E+01   0.1000000E+01  0.0000000E+00  0.1586033E-16
  0.1230495E+01 -0.7114751E+00  0.7000000E+01   0.1000000E+01  0.0000000E+00  0.1586033E-16
  0.1230495E+01 -0.7114751E+00 -0.7000000E+01   0.1000000E+01  0.0000000E+00  0.1586033E-16
  0.1230495E+01  0.7114751E+00 -0.7000000E+01   0.1000000E+01  0.0000000E+00  0.1586033E-16
 WIGNER-SEITZ-PRIMCELL_END
 WIGNER-SEITZ-CONVCELL
           4
 -0.1230495E+01  0.7114751E+00 -0.7000000E+01  -0.1000000E+01 -0.0000000E+00 -0.0000000E+00
 -0.1230495E+01 -0.7114751E+00 -0.7000000E+01  -0.1000000E+01 -0.0000000E+00 -0.0000000E+00
 -0.1230495E+01 -0.7114751E+00  0.7000000E+01  -0.1000000E+01 -0.0000000E+00 -0.0000000E+00
 -0.1230495E+01  0.7114751E+00  0.7000000E+01  -0.1000000E+01 -0.0000000E+00 -0.0000000E+00
           4
 -0.1230495E+01  0.7114751E+00  0.7000000E+01  -0.4997280E+00  0.8661824E+00  0.0000000E+00
 -0.1523800E-04  0.1421378E+01  0.7000000E+01  -0.4997280E+00  0.8661824E+00  0.0000000E+00
 -0.1523800E-04  0.1421378E+01 -0.7000000E+01  -0.4997280E+00  0.8661824E+00  0.0000000E+00
 -0.1230495E+01  0.7114751E+00 -0.7000000E+01  -0.4997280E+00  0.8661824E+00  0.0000000E+00
           4
 -0.1230495E+01 -0.7114751E+00 -0.7000000E+01  -0.4997187E+00 -0.8661877E+00 -0.0000000E+00
  0.1523800E-04 -0.1421378E+01 -0.7000000E+01  -0.4997187E+00 -0.8661877E+00 -0.0000000E+00
  0.1523800E-04 -0.1421378E+01  0.7000000E+01  -0.4997187E+00 -0.8661877E+00 -0.0000000E+00
 -0.1230495E+01 -0.7114751E+00  0.7000000E+01  -0.4997187E+00 -0.8661877E+00 -0.0000000E+00
           6
 -0.1230495E+01 -0.7114751E+00 -0.7000000E+01   0.0000000E+00  0.0000000E+00 -0.1000000E+01
 -0.1230495E+01  0.7114751E+00 -0.7000000E+01   0.0000000E+00  0.0000000E+00 -0.1000000E+01
 -0.1523800E-04  0.1421378E+01 -0.7000000E+01   0.0000000E+00  0.0000000E+00 -0.1000000E+01
  0.1230495E+01  0.7114751E+00 -0.7000000E+01   0.0000000E+00  0.0000000E+00 -0.1000000E+01
  0.1230495E+01 -0.7114751E+00 -0.7000000E+01   0.0000000E+00  0.0000000E+00 -0.1000000E+01
  0.1523800E-04 -0.1421378E+01 -0.7000000E+01   0.0000000E+00  0.0000000E+00 -0.1000000E+01
           6
  0.1523800E-04 -0.1421378E+01  0.7000000E+01  -0.0000000E+00 -0.0000000E+00  0.1000000E+01
  0.1230495E+01 -0.7114751E+00  0.7000000E+01  -0.0000000E+00 -0.0000000E+00  0.1000000E+01
  0.1230495E+01  0.7114751E+00  0.7000000E+01  -0.0000000E+00 -0.0000000E+00  0.1000000E+01
 -0.1523800E-04  0.1421378E+01  0.7000000E+01  -0.0000000E+00 -0.0000000E+00  0.1000000E+01
 -0.1230495E+01  0.7114751E+00  0.7000000E+01  -0.0000000E+00 -0.0000000E+00  0.1000000E+01
 -0.1230495E+01 -0.7114751E+00  0.7000000E+01  -0.0000000E+00 -0.0000000E+00  0.1000000E+01
           4
  0.1230495E+01  0.7114751E+00  0.7000000E+01   0.4997187E+00  0.8661877E+00 -0.1563029E-15
  0.1230495E+01  0.7114751E+00 -0.7000000E+01   0.4997187E+00  0.8661877E+00 -0.1563029E-15
 -0.1523800E-04  0.1421378E+01 -0.7000000E+01   0.4997187E+00  0.8661877E+00 -0.1563029E-15
 -0.1523800E-04  0.1421378E+01  0.7000000E+01   0.4997187E+00  0.8661877E+00 -0.1563029E-15
           4
  0.1523800E-04 -0.1421378E+01 -0.7000000E+01   0.4997280E+00 -0.8661824E+00  0.2145161E-16
  0.1230495E+01 -0.7114751E+00 -0.7000000E+01   0.4997280E+00 -0.8661824E+00  0.2145161E-16
  0.1230495E+01 -0.7114751E+00  0.7000000E+01   0.4997280E+00 -0.8661824E+00  0.2145161E-16
  0.1523800E-04 -0.1421378E+01  0.7000000E+01   0.4997280E+00 -0.8661824E+00  0.2145161E-16
           4
  0.1230495E+01  0.7114751E+00  0.7000000E+01   0.1000000E+01  0.0000000E+00  0.1586033E-16
  0.1230495E+01 -0.7114751E+00  0.7000000E+01   0.1000000E+01  0.0000000E+00  0.1586033E-16
  0.1230495E+01 -0.7114751E+00 -0.7000000E+01   0.1000000E+01  0.0000000E+00  0.1586033E-16
  0.1230495E+01  0.7114751E+00 -0.7000000E+01   0.1000000E+01  0.0000000E+00  0.1586033E-16
 WIGNER-SEITZ-CONVCELL_END
 BRILLOUIN-ZONE-PRIMCELL
           6
 -0.2707938E+00 -0.2903068E-05 -0.3571429E-01   0.0000000E+00  0.0000000E+00 -0.1000000E+01
 -0.1355467E+00  0.2344278E+00 -0.3571429E-01   0.0000000E+00  0.0000000E+00 -0.1000000E+01
  0.1355467E+00  0.2344278E+00 -0.3571429E-01   0.0000000E+00  0.0000000E+00 -0.1000000E+01
  0.2707938E+00  0.2903068E-05 -0.3571429E-01   0.0000000E+00  0.0000000E+00 -0.1000000E+01
  0.1355467E+00 -0.2344278E+00 -0.3571429E-01   0.0000000E+00  0.0000000E+00 -0.1000000E+01
 -0.1355467E+00 -0.2344278E+00 -0.3571429E-01   0.0000000E+00  0.0000000E+00 -0.1000000E+01
           4
  0.1355467E+00 -0.2344278E+00  0.3571429E-01   0.0000000E+00 -0.1000000E+01  0.0000000E+00
 -0.1355467E+00 -0.2344278E+00  0.3571429E-01   0.0000000E+00 -0.1000000E+01  0.0000000E+00
 -0.1355467E+00 -0.2344278E+00 -0.3571429E-01   0.0000000E+00 -0.1000000E+01  0.0000000E+00
  0.1355467E+00 -0.2344278E+00 -0.3571429E-01   0.0000000E+00 -0.1000000E+01  0.0000000E+00
           4
 -0.2707938E+00 -0.2903068E-05  0.3571429E-01  -0.8661824E+00 -0.4997280E+00 -0.4501970E-15
 -0.2707938E+00 -0.2903068E-05 -0.3571429E-01  -0.8661824E+00 -0.4997280E+00 -0.4501970E-15
 -0.1355467E+00 -0.2344278E+00 -0.3571429E-01  -0.8661824E+00 -0.4997280E+00 -0.4501970E-15
 -0.1355467E+00 -0.2344278E+00  0.3571429E-01  -0.8661824E+00 -0.4997280E+00 -0.4501970E-15
           4
  0.2707938E+00  0.2903068E-05  0.3571429E-01   0.8661877E+00 -0.4997187E+00 -0.3589392E-15
  0.1355467E+00 -0.2344278E+00  0.3571429E-01   0.8661877E+00 -0.4997187E+00 -0.3589392E-15
  0.1355467E+00 -0.2344278E+00 -0.3571429E-01   0.8661877E+00 -0.4997187E+00 -0.3589392E-15
  0.2707938E+00  0.2903068E-05 -0.3571429E-01   0.8661877E+00 -0.4997187E+00 -0.3589392E-15
           4
 -0.1355467E+00  0.2344278E+00 -0.3571429E-01  -0.8661877E+00  0.4997187E+00 -0.1119077E-14
 -0.2707938E+00 -0.2903068E-05 -0.3571429E-01  -0.8661877E+00  0.4997187E+00 -0.1119077E-14
 -0.2707938E+00 -0.2903068E-05  0.3571429E-01  -0.8661877E+00  0.4997187E+00 -0.1119077E-14
 -0.1355467E+00  0.2344278E+00  0.3571429E-01  -0.8661877E+00  0.4997187E+00 -0.1119077E-14
           4
  0.1355467E+00  0.2344278E+00  0.3571429E-01   0.8661824E+00  0.4997280E+00  0.9003960E-15
  0.2707938E+00  0.2903068E-05  0.3571429E-01   0.8661824E+00  0.4997280E+00  0.9003960E-15
  0.2707938E+00  0.2903068E-05 -0.3571429E-01   0.8661824E+00  0.4997280E+00  0.9003960E-15
  0.1355467E+00  0.2344278E+00 -0.3571429E-01   0.8661824E+00  0.4997280E+00  0.9003960E-15
           4
  0.1355467E+00  0.2344278E+00 -0.3571429E-01  -0.0000000E+00  0.1000000E+01  0.1008068E-14
 -0.1355467E+00  0.2344278E+00 -0.3571429E-01  -0.0000000E+00  0.1000000E+01  0.1008068E-14
 -0.1355467E+00  0.2344278E+00  0.3571429E-01  -0.0000000E+00  0.1000000E+01  0.1008068E-14
  0.1355467E+00  0.2344278E+00  0.3571429E-01  -0.0000000E+00  0.1000000E+01  0.1008068E-14
           6
 -0.1355467E+00 -0.2344278E+00  0.3571429E-01  -0.0000000E+00  0.1364793E-16  0.1000000E+01
  0.1355467E+00 -0.2344278E+00  0.3571429E-01  -0.0000000E+00  0.1364793E-16  0.1000000E+01
  0.2707938E+00  0.2903068E-05  0.3571429E-01  -0.0000000E+00  0.1364793E-16  0.1000000E+01
  0.1355467E+00  0.2344278E+00  0.3571429E-01  -0.0000000E+00  0.1364793E-16  0.1000000E+01
 -0.1355467E+00  0.2344278E+00  0.3571429E-01  -0.0000000E+00  0.1364793E-16  0.1000000E+01
 -0.2707938E+00 -0.2903068E-05  0.3571429E-01  -0.0000000E+00  0.1364793E-16  0.1000000E+01
 BRILLOUIN-ZONE-PRIMCELL_END
 BRILLOUIN-ZONE-CONVCELL
           6
 -0.2707938E+00 -0.2903068E-05 -0.3571429E-01   0.0000000E+00  0.0000000E+00 -0.1000000E+01
 -0.1355467E+00  0.2344278E+00 -0.3571429E-01   0.0000000E+00  0.0000000E+00 -0.1000000E+01
  0.1355467E+00  0.2344278E+00 -0.3571429E-01   0.0000000E+00  0.0000000E+00 -0.1000000E+01
  0.2707938E+00  0.2903068E-05 -0.3571429E-01   0.0000000E+00  0.0000000E+00 -0.1000000E+01
  0.1355467E+00 -0.2344278E+00 -0.3571429E-01   0.0000000E+00  0.0000000E+00 -0.1000000E+01
 -0.1355467E+00 -0.2344278E+00 -0.3571429E-01   0.0000000E+00  0.0000000E+00 -0.1000000E+01
           4
  0.1355467E+00 -0.2344278E+00  0.3571429E-01   0.0000000E+00 -0.1000000E+01  0.0000000E+00
 -0.1355467E+00 -0.2344278E+00  0.3571429E-01   0.0000000E+00 -0.1000000E+01  0.0000000E+00
 -0.1355467E+00 -0.2344278E+00 -0.3571429E-01   0.0000000E+00 -0.1000000E+01  0.0000000E+00
  0.1355467E+00 -0.2344278E+00 -0.3571429E-01   0.0000000E+00 -0.1000000E+01  0.0000000E+00
           4
 -0.2707938E+00 -0.2903068E-05  0.3571429E-01  -0.8661824E+00 -0.4997280E+00 -0.4501970E-15
 -0.2707938E+00 -0.2903068E-05 -0.3571429E-01  -0.8661824E+00 -0.4997280E+00 -0.4501970E-15
 -0.1355467E+00 -0.2344278E+00 -0.3571429E-01  -0.8661824E+00 -0.4997280E+00 -0.4501970E-15
 -0.1355467E+00 -0.2344278E+00  0.3571429E-01  -0.8661824E+00 -0.4997280E+00 -0.4501970E-15
           4
  0.2707938E+00  0.2903068E-05  0.3571429E-01   0.8661877E+00 -0.4997187E+00 -0.3589392E-15
  0.1355467E+00 -0.2344278E+00  0.3571429E-01   0.8661877E+00 -0.4997187E+00 -0.3589392E-15
  0.1355467E+00 -0.2344278E+00 -0.3571429E-01   0.8661877E+00 -0.4997187E+00 -0.3589392E-15
  0.2707938E+00  0.2903068E-05 -0.3571429E-01   0.8661877E+00 -0.4997187E+00 -0.3589392E-15
           4
 -0.1355467E+00  0.2344278E+00 -0.3571429E-01  -0.8661877E+00  0.4997187E+00 -0.1119077E-14
 -0.2707938E+00 -0.2903068E-05 -0.3571429E-01  -0.8661877E+00  0.4997187E+00 -0.1119077E-14
 -0.2707938E+00 -0.2903068E-05  0.3571429E-01  -0.8661877E+00  0.4997187E+00 -0.1119077E-14
 -0.1355467E+00  0.2344278E+00  0.3571429E-01  -0.8661877E+00  0.4997187E+00 -0.1119077E-14
           4
  0.1355467E+00  0.2344278E+00  0.3571429E-01   0.8661824E+00  0.4997280E+00  0.9003960E-15
  0.2707938E+00  0.2903068E-05  0.3571429E-01   0.8661824E+00  0.4997280E+00  0.9003960E-15
  0.2707938E+00  0.2903068E-05 -0.3571429E-01   0.8661824E+00  0.4997280E+00  0.9003960E-15
  0.1355467E+00  0.2344278E+00 -0.3571429E-01   0.8661824E+00  0.4997280E+00  0.9003960E-15
           4
  0.1355467E+00  0.2344278E+00 -0.3571429E-01  -0.0000000E+00  0.1000000E+01  0.1008068E-14
 -0.1355467E+00  0.2344278E+00 -0.3571429E-01  -0.0000000E+00  0.1000000E+01  0.1008068E-14
 -0.1355467E+00  0.2344278E+00  0.3571429E-01  -0.0000000E+00  0.1000000E+01  0.1008068E-14
  0.1355467E+00  0.2344278E+00  0.3571429E-01  -0.0000000E+00  0.1000000E+01  0.1008068E-14
           6
 -0.1355467E+00 -0.2344278E+00  0.3571429E-01  -0.0000000E+00  0.1364793E-16  0.1000000E+01
  0.1355467E+00 -0.2344278E+00  0.3571429E-01  -0.0000000E+00  0.1364793E-16  0.1000000E+01
  0.2707938E+00  0.2903068E-05  0.3571429E-01  -0.0000000E+00  0.1364793E-16  0.1000000E+01
  0.1355467E+00  0.2344278E+00  0.3571429E-01  -0.0000000E+00  0.1364793E-16  0.1000000E+01
 -0.1355467E+00  0.2344278E+00  0.3571429E-01  -0.0000000E+00  0.1364793E-16  0.1000000E+01
 -0.2707938E+00 -0.2903068E-05  0.3571429E-01  -0.0000000E+00  0.1364793E-16  0.1000000E+01
 BRILLOUIN-ZONE-CONVCELL_END
 ATOMS
    6    1.2304940000    0.7100720000    6.9999750000
    6   -0.0000010000    1.4212100000    6.9999750000
 FRAMES
1      0.0000000000    0.0000000000    0.0000000000      2.4609900000    0.0000000000    0.0000000000
1      0.0000000000    0.0000000000    0.0000000000     -1.2305102380    2.1328528600    0.0000000000
1      0.0000000000    0.0000000000    0.0000000000      0.0000000000    0.0000000000   14.0000000000
1      0.0000000000    0.0000000000   14.0000000000      2.4609900000    0.0000000000   14.0000000000
1      0.0000000000    0.0000000000   14.0000000000     -1.2305102380    2.1328528600   14.0000000000
1     -1.2305102380    2.1328528600    0.0000000000      1.2304797620    2.1328528600    0.0000000000
1     -1.2305102380    2.1328528600    0.0000000000     -1.2305102380    2.1328528600   14.0000000000
1     -1.2305102380    2.1328528600   14.0000000000      1.2304797620    2.1328528600   14.0000000000
1      2.4609900000    0.0000000000    0.0000000000      1.2304797620    2.1328528600    0.0000000000
1      2.4609900000    0.0000000000    0.0000000000      2.4609900000    0.0000000000   14.0000000000
1      2.4609900000    0.0000000000   14.0000000000      1.2304797620    2.1328528600   14.0000000000
1      1.2304797620    2.1328528600    0.0000000000      1.2304797620    2.1328528600   14.0000000000
