 INFO
nunit      1    1    1
unit   cell
celltype   primcell
shape   parapipedal
 END_INFO
 DIM-GROUP
           3           9
 PRIMVEC
   12.3048999510    0.0000000000    0.0000000000
   -6.1524499750   10.6563509800    0.0000000000
    0.0000000000    0.0000000000   13.9999983580
 CONVVEC
   12.3048999510    0.0000000000    0.0000000000
   -6.1524499750   10.6563509800    0.0000000000
    0.0000000000    0.0000000000   13.9999983580
 PRIMCOORD
          51           1
  6      1.2305023000     0.7104376070     6.9999711790     0.0041303600    -0.0050497500     0.0022229800
  6      0.0000123050     1.4208539020     6.9999711790    -0.0064383900     0.0010521200     0.0022229800
  6     -0.0010432160     2.8419987750     7.0274921940     0.0000627100    -0.0000059400    -0.0002888400
  6     -1.2304838430     3.5521347540     6.9999711790    -0.0013638600    -0.0016619000     0.0042327300
  6     -1.2348829860     4.9705763670     7.0092613400    -0.0001384600    -0.0000650500    -0.0002446900
  6     -2.4609799900     5.6834156060     6.9999711790    -0.0029196800     0.0031593800    -0.0015031100
  6     -2.4613965660     7.1012952880     7.0054999050    -0.0000007900    -0.0000107300    -0.0000980600
  6     -3.6914761380     7.8146964590     6.9999711790     0.0028169600     0.0031502800    -0.0025928900
  6     -3.6914822900     9.2355397040     6.9999711790     0.0123481700    -0.0071292200     0.0012454200
  6     -4.9219784380     9.9459666550     6.9999711790    -0.0118352800     0.0068331000    -0.0048616000
  6      3.6914822900     0.7104376070     6.9999711790    -0.0007573200    -0.0020120900     0.0042327300
  6      2.4617658920     1.4200959370     7.0274921940    -0.0000365000     0.0000513400    -0.0002888400
  6      2.4725882790     2.8383544310     7.1264376720    -0.0000413600    -0.0004199000     0.0000191900
  6      1.2217940490     3.5605004800     7.1264376720    -0.0003429700    -0.0002457700     0.0000191900
  6      1.1954165510     4.9593719280     7.1851530080    -0.0004402200    -0.0001176300     0.0003822100
  6     -0.0078557500     5.6793463190     7.0714311750    -0.0000395600     0.0000285900    -0.0001709200
  6     -0.0040975620     7.1066281310     7.0656494140    -0.0000134500     0.0000077700     0.0002003300
  6     -1.2270163530     7.8126731910     7.0213112370    -0.0003258500     0.0001881300    -0.0001303900
  6     -1.2281286850     9.2373769230     7.0054999050     0.0000089000     0.0000060500    -0.0000980600
  6     -2.4609984480     9.9459666550     6.9999711790    -0.0013197400    -0.0040147000    -0.0025928900
  6      6.1524745850     0.7104376070     6.9999711790     0.0041959500    -0.0009488300    -0.0015031100
  6      4.9220766000     1.4158486450     7.0092613400     0.0000128900    -0.0001524400    -0.0002446900
  6      4.9223945100     2.8328805400     7.0714311750     0.0000445400    -0.0000199700    -0.0001709200
  6      3.6972296510     3.5149359260     7.1851530080     0.0001182400    -0.0004400600     0.0003822100
  6      3.7301708460     4.9506482660     7.4591148170    -0.0000336600     0.0000194300     0.0000455700
  6      2.4223037390     5.7057453400     7.4591148170     0.0000336600    -0.0000194300     0.0000455700
  6      2.4552449350     7.1414576790     7.1851530080    -0.0001182400     0.0004400600     0.0003822100
  6      1.2300800760     7.8235130650     7.0714311750    -0.0000445400     0.0000199700    -0.0001709200
  6      1.2303979850     9.2405449600     7.0092613400    -0.0000128900     0.0001524400    -0.0002446900
  6     -0.0000061520     9.9459666550     6.9999711790    -0.0041959500     0.0009488300    -0.0015031100
  6      8.6134668800     0.7104376070     6.9999711790     0.0013197400     0.0040147000    -0.0025928900
  6      7.3806032700     1.4190166830     7.0054999050    -0.0000089000    -0.0000060500    -0.0000980600
  6      7.3794909380     2.8437204150     7.0213112370     0.0003258500    -0.0001881300    -0.0001303900
  6      6.1565721480     3.5497654740     7.0656494140     0.0000134500    -0.0000077700     0.0002003300
  6      6.1603303350     4.9770472870     7.0714311750     0.0000395600    -0.0000285900    -0.0001709200
  6      4.9570580340     5.6970216780     7.1851530080     0.0004402200     0.0001176300     0.0003822100
  6      4.9306805370     7.0958931260     7.1264376720     0.0003429700     0.0002457700     0.0000191900
  6      3.6798863060     7.8180391750     7.1264376720     0.0000413600     0.0004199000     0.0000191900
  6      3.6907086930     9.2362976690     7.0274921940     0.0000365000    -0.0000513400    -0.0002888400
  6      2.4609861430     9.9459666550     6.9999711790     0.0007573200     0.0020120900     0.0042327300
  6     11.0744468710     0.7104376070     6.9999711790     0.0118352800    -0.0068331000    -0.0048616000
  6      9.8439568750     1.4208539020     6.9999711790    -0.0123481700     0.0071292200     0.0012454200
  6      9.8439507230     2.8416971470     6.9999711790    -0.0028169600    -0.0031502800    -0.0025928900
  6      8.6138711520     3.5550983170     7.0054999050     0.0000007900     0.0000107300    -0.0000980600
  6      8.6134545760     4.9729779990     6.9999711790     0.0029196800    -0.0031593800    -0.0015031100
  6      7.3873575710     5.6858172390     7.0092613400     0.0001384600     0.0000650500    -0.0002446900
  6      7.3829584280     7.1042588520     6.9999711790     0.0013638600     0.0016619000     0.0042327300
  6      6.1535178010     7.8143948310     7.0274921940    -0.0000627100     0.0000059400    -0.0002888400
  6      6.1524622800     9.2355397040     6.9999711790     0.0064383900    -0.0010521200     0.0022229800
  6      4.9219661330     9.9459666550     6.9999711790    -0.0041303600     0.0050497500     0.0022229800
  8      3.0762249880     5.3281754900     8.7170992300     0.0000000000     0.0000000000    -0.0008330400
 CONVCOORD
          51           1
  6      1.2305023000     0.7104376070     6.9999711790
  6      0.0000123050     1.4208539020     6.9999711790
  6     -0.0010432160     2.8419987750     7.0274921940
  6     -1.2304838430     3.5521347540     6.9999711790
  6     -1.2348829860     4.9705763670     7.0092613400
  6     -2.4609799900     5.6834156060     6.9999711790
  6     -2.4613965660     7.1012952880     7.0054999050
  6     -3.6914761380     7.8146964590     6.9999711790
  6     -3.6914822900     9.2355397040     6.9999711790
  6     -4.9219784380     9.9459666550     6.9999711790
  6      3.6914822900     0.7104376070     6.9999711790
  6      2.4617658920     1.4200959370     7.0274921940
  6      2.4725882790     2.8383544310     7.1264376720
  6      1.2217940490     3.5605004800     7.1264376720
  6      1.1954165510     4.9593719280     7.1851530080
  6     -0.0078557500     5.6793463190     7.0714311750
  6     -0.0040975620     7.1066281310     7.0656494140
  6     -1.2270163530     7.8126731910     7.0213112370
  6     -1.2281286850     9.2373769230     7.0054999050
  6     -2.4609984480     9.9459666550     6.9999711790
  6      6.1524745850     0.7104376070     6.9999711790
  6      4.9220766000     1.4158486450     7.0092613400
  6      4.9223945100     2.8328805400     7.0714311750
  6      3.6972296510     3.5149359260     7.1851530080
  6      3.7301708460     4.9506482660     7.4591148170
  6      2.4223037390     5.7057453400     7.4591148170
  6      2.4552449350     7.1414576790     7.1851530080
  6      1.2300800760     7.8235130650     7.0714311750
  6      1.2303979850     9.2405449600     7.0092613400
  6     -0.0000061520     9.9459666550     6.9999711790
  6      8.6134668800     0.7104376070     6.9999711790
  6      7.3806032700     1.4190166830     7.0054999050
  6      7.3794909380     2.8437204150     7.0213112370
  6      6.1565721480     3.5497654740     7.0656494140
  6      6.1603303350     4.9770472870     7.0714311750
  6      4.9570580340     5.6970216780     7.1851530080
  6      4.9306805370     7.0958931260     7.1264376720
  6      3.6798863060     7.8180391750     7.1264376720
  6      3.6907086930     9.2362976690     7.0274921940
  6      2.4609861430     9.9459666550     6.9999711790
  6     11.0744468710     0.7104376070     6.9999711790
  6      9.8439568750     1.4208539020     6.9999711790
  6      9.8439507230     2.8416971470     6.9999711790
  6      8.6138711520     3.5550983170     7.0054999050
  6      8.6134545760     4.9729779990     6.9999711790
  6      7.3873575710     5.6858172390     7.0092613400
  6      7.3829584280     7.1042588520     6.9999711790
  6      6.1535178010     7.8143948310     7.0274921940
  6      6.1524622800     9.2355397040     6.9999711790
  6      4.9219661330     9.9459666550     6.9999711790
  8      3.0762249880     5.3281754900     8.7170992300
 RECIP-PRIMVEC
    0.0812684381    0.0469203765   -0.0000000000

    0.0000000000    0.0938407530    0.0000000000

    0.0000000000   -0.0000000000    0.0714285798

 RECIP-CONVVEC
    0.0812684381    0.0469203765   -0.0000000000

    0.0000000000    0.0938407530    0.0000000000

    0.0000000000   -0.0000000000    0.0714285798

 WIGNER-SEITZ-PRIMCELL
           4
  0.6152450E+01 -0.3552115E+01 -0.6999999E+01   0.1000000E+01 -0.0000000E+00 -0.0000000E+00
  0.6152450E+01  0.3552115E+01 -0.6999999E+01   0.1000000E+01 -0.0000000E+00 -0.0000000E+00
  0.6152450E+01  0.3552115E+01  0.6999999E+01   0.1000000E+01 -0.0000000E+00 -0.0000000E+00
  0.6152450E+01 -0.3552115E+01  0.6999999E+01   0.1000000E+01 -0.0000000E+00 -0.0000000E+00
           4
  0.6152450E+01 -0.3552115E+01  0.6999999E+01   0.5000002E+00 -0.8660253E+00 -0.1435454E-15
 -0.4999987E-09 -0.7104236E+01  0.6999999E+01   0.5000002E+00 -0.8660253E+00 -0.1435454E-15
 -0.5000007E-09 -0.7104236E+01 -0.6999999E+01   0.5000002E+00 -0.8660253E+00 -0.1435454E-15
  0.6152450E+01 -0.3552115E+01 -0.6999999E+01   0.5000002E+00 -0.8660253E+00 -0.1435454E-15
           4
  0.6152450E+01  0.3552115E+01 -0.6999999E+01   0.5000002E+00  0.8660253E+00 -0.7210489E-16
  0.4999987E-09  0.7104236E+01 -0.6999999E+01   0.5000002E+00  0.8660253E+00 -0.7210489E-16
  0.5000007E-09  0.7104236E+01  0.6999999E+01   0.5000002E+00  0.8660253E+00 -0.7210489E-16
  0.6152450E+01  0.3552115E+01  0.6999999E+01   0.5000002E+00  0.8660253E+00 -0.7210489E-16
           6
 -0.6152450E+01 -0.3552115E+01 -0.6999999E+01  -0.1625643E-15  0.0000000E+00 -0.1000000E+01
 -0.6152450E+01  0.3552115E+01 -0.6999999E+01  -0.1625643E-15  0.0000000E+00 -0.1000000E+01
  0.4999987E-09  0.7104236E+01 -0.6999999E+01  -0.1625643E-15  0.0000000E+00 -0.1000000E+01
  0.6152450E+01  0.3552115E+01 -0.6999999E+01  -0.1625643E-15  0.0000000E+00 -0.1000000E+01
  0.6152450E+01 -0.3552115E+01 -0.6999999E+01  -0.1625643E-15  0.0000000E+00 -0.1000000E+01
 -0.5000007E-09 -0.7104236E+01 -0.6999999E+01  -0.1625643E-15  0.0000000E+00 -0.1000000E+01
           6
 -0.5000007E-09 -0.7104236E+01  0.6999999E+01  -0.3251285E-15 -0.0000000E+00  0.1000000E+01
  0.6152450E+01 -0.3552115E+01  0.6999999E+01  -0.3251285E-15 -0.0000000E+00  0.1000000E+01
  0.6152450E+01  0.3552115E+01  0.6999999E+01  -0.3251285E-15 -0.0000000E+00  0.1000000E+01
  0.4999987E-09  0.7104236E+01  0.6999999E+01  -0.3251285E-15 -0.0000000E+00  0.1000000E+01
 -0.6152450E+01  0.3552115E+01  0.6999999E+01  -0.3251285E-15 -0.0000000E+00  0.1000000E+01
 -0.6152450E+01 -0.3552115E+01  0.6999999E+01  -0.3251285E-15 -0.0000000E+00  0.1000000E+01
           4
 -0.6152450E+01 -0.3552115E+01  0.6999999E+01  -0.5000002E+00 -0.8660253E+00  0.0000000E+00
 -0.6152450E+01 -0.3552115E+01 -0.6999999E+01  -0.5000002E+00 -0.8660253E+00  0.0000000E+00
 -0.5000007E-09 -0.7104236E+01 -0.6999999E+01  -0.5000002E+00 -0.8660253E+00  0.0000000E+00
 -0.4999997E-09 -0.7104236E+01  0.6999999E+01  -0.5000002E+00 -0.8660253E+00  0.0000000E+00
           4
  0.4999997E-09  0.7104236E+01  0.6999999E+01  -0.5000002E+00  0.8660253E+00  0.1428811E-15
  0.4999987E-09  0.7104236E+01 -0.6999999E+01  -0.5000002E+00  0.8660253E+00  0.1428811E-15
 -0.6152450E+01  0.3552115E+01 -0.6999999E+01  -0.5000002E+00  0.8660253E+00  0.1428811E-15
 -0.6152450E+01  0.3552115E+01  0.6999999E+01  -0.5000002E+00  0.8660253E+00  0.1428811E-15
           4
 -0.6152450E+01 -0.3552115E+01  0.6999999E+01  -0.1000000E+01  0.0000000E+00  0.6344132E-16
 -0.6152450E+01  0.3552115E+01  0.6999999E+01  -0.1000000E+01  0.0000000E+00  0.6344132E-16
 -0.6152450E+01  0.3552115E+01 -0.6999999E+01  -0.1000000E+01  0.0000000E+00  0.6344132E-16
 -0.6152450E+01 -0.3552115E+01 -0.6999999E+01  -0.1000000E+01  0.0000000E+00  0.6344132E-16
 WIGNER-SEITZ-PRIMCELL_END
 WIGNER-SEITZ-CONVCELL
           4
  0.6152450E+01 -0.3552115E+01 -0.6999999E+01   0.1000000E+01 -0.0000000E+00 -0.0000000E+00
  0.6152450E+01  0.3552115E+01 -0.6999999E+01   0.1000000E+01 -0.0000000E+00 -0.0000000E+00
  0.6152450E+01  0.3552115E+01  0.6999999E+01   0.1000000E+01 -0.0000000E+00 -0.0000000E+00
  0.6152450E+01 -0.3552115E+01  0.6999999E+01   0.1000000E+01 -0.0000000E+00 -0.0000000E+00
           4
  0.6152450E+01 -0.3552115E+01  0.6999999E+01   0.5000002E+00 -0.8660253E+00 -0.1435454E-15
 -0.4999987E-09 -0.7104236E+01  0.6999999E+01   0.5000002E+00 -0.8660253E+00 -0.1435454E-15
 -0.5000007E-09 -0.7104236E+01 -0.6999999E+01   0.5000002E+00 -0.8660253E+00 -0.1435454E-15
  0.6152450E+01 -0.3552115E+01 -0.6999999E+01   0.5000002E+00 -0.8660253E+00 -0.1435454E-15
           4
  0.6152450E+01  0.3552115E+01 -0.6999999E+01   0.5000002E+00  0.8660253E+00 -0.7210489E-16
  0.4999987E-09  0.7104236E+01 -0.6999999E+01   0.5000002E+00  0.8660253E+00 -0.7210489E-16
  0.5000007E-09  0.7104236E+01  0.6999999E+01   0.5000002E+00  0.8660253E+00 -0.7210489E-16
  0.6152450E+01  0.3552115E+01  0.6999999E+01   0.5000002E+00  0.8660253E+00 -0.7210489E-16
           6
 -0.6152450E+01 -0.3552115E+01 -0.6999999E+01  -0.1625643E-15  0.0000000E+00 -0.1000000E+01
 -0.6152450E+01  0.3552115E+01 -0.6999999E+01  -0.1625643E-15  0.0000000E+00 -0.1000000E+01
  0.4999987E-09  0.7104236E+01 -0.6999999E+01  -0.1625643E-15  0.0000000E+00 -0.1000000E+01
  0.6152450E+01  0.3552115E+01 -0.6999999E+01  -0.1625643E-15  0.0000000E+00 -0.1000000E+01
  0.6152450E+01 -0.3552115E+01 -0.6999999E+01  -0.1625643E-15  0.0000000E+00 -0.1000000E+01
 -0.5000007E-09 -0.7104236E+01 -0.6999999E+01  -0.1625643E-15  0.0000000E+00 -0.1000000E+01
           6
 -0.5000007E-09 -0.7104236E+01  0.6999999E+01  -0.3251285E-15 -0.0000000E+00  0.1000000E+01
  0.6152450E+01 -0.3552115E+01  0.6999999E+01  -0.3251285E-15 -0.0000000E+00  0.1000000E+01
  0.6152450E+01  0.3552115E+01  0.6999999E+01  -0.3251285E-15 -0.0000000E+00  0.1000000E+01
  0.4999987E-09  0.7104236E+01  0.6999999E+01  -0.3251285E-15 -0.0000000E+00  0.1000000E+01
 -0.6152450E+01  0.3552115E+01  0.6999999E+01  -0.3251285E-15 -0.0000000E+00  0.1000000E+01
 -0.6152450E+01 -0.3552115E+01  0.6999999E+01  -0.3251285E-15 -0.0000000E+00  0.1000000E+01
           4
 -0.6152450E+01 -0.3552115E+01  0.6999999E+01  -0.5000002E+00 -0.8660253E+00  0.0000000E+00
 -0.6152450E+01 -0.3552115E+01 -0.6999999E+01  -0.5000002E+00 -0.8660253E+00  0.0000000E+00
 -0.5000007E-09 -0.7104236E+01 -0.6999999E+01  -0.5000002E+00 -0.8660253E+00  0.0000000E+00
 -0.4999997E-09 -0.7104236E+01  0.6999999E+01  -0.5000002E+00 -0.8660253E+00  0.0000000E+00
           4
  0.4999997E-09  0.7104236E+01  0.6999999E+01  -0.5000002E+00  0.8660253E+00  0.1428811E-15
  0.4999987E-09  0.7104236E+01 -0.6999999E+01  -0.5000002E+00  0.8660253E+00  0.1428811E-15
 -0.6152450E+01  0.3552115E+01 -0.6999999E+01  -0.5000002E+00  0.8660253E+00  0.1428811E-15
 -0.6152450E+01  0.3552115E+01  0.6999999E+01  -0.5000002E+00  0.8660253E+00  0.1428811E-15
           4
 -0.6152450E+01 -0.3552115E+01  0.6999999E+01  -0.1000000E+01  0.0000000E+00  0.6344132E-16
 -0.6152450E+01  0.3552115E+01  0.6999999E+01  -0.1000000E+01  0.0000000E+00  0.6344132E-16
 -0.6152450E+01  0.3552115E+01 -0.6999999E+01  -0.1000000E+01  0.0000000E+00  0.6344132E-16
 -0.6152450E+01 -0.3552115E+01 -0.6999999E+01  -0.1000000E+01  0.0000000E+00  0.6344132E-16
 WIGNER-SEITZ-CONVCELL_END
 BRILLOUIN-ZONE-PRIMCELL
           4
 -0.5417897E-01  0.3813147E-11 -0.3571429E-01  -0.8660253E+00 -0.5000002E+00 -0.3418542E-26
 -0.2708947E-01 -0.4692038E-01 -0.3571429E-01  -0.8660253E+00 -0.5000002E+00 -0.3418542E-26
 -0.2708947E-01 -0.4692038E-01  0.3571429E-01  -0.8660253E+00 -0.5000002E+00 -0.3418542E-26
 -0.5417897E-01  0.3813141E-11  0.3571429E-01  -0.8660253E+00 -0.5000002E+00 -0.3418542E-26
           4
 -0.5417897E-01  0.3813147E-11  0.3571429E-01  -0.8660253E+00  0.5000002E+00  0.5603216E-16
 -0.2708947E-01  0.4692038E-01  0.3571429E-01  -0.8660253E+00  0.5000002E+00  0.5603216E-16
 -0.2708947E-01  0.4692038E-01 -0.3571429E-01  -0.8660253E+00  0.5000002E+00  0.5603216E-16
 -0.5417897E-01  0.3813147E-11 -0.3571429E-01  -0.8660253E+00  0.5000002E+00  0.5603216E-16
           4
 -0.2708947E-01 -0.4692038E-01 -0.3571429E-01  -0.3732495E-31 -0.1000000E+01  0.2793475E-16
  0.2708947E-01 -0.4692038E-01 -0.3571429E-01  -0.3732495E-31 -0.1000000E+01  0.2793475E-16
  0.2708947E-01 -0.4692038E-01  0.3571429E-01  -0.3732495E-31 -0.1000000E+01  0.2793475E-16
 -0.2708947E-01 -0.4692038E-01  0.3571429E-01  -0.3732495E-31 -0.1000000E+01  0.2793475E-16
           6
 -0.5417897E-01  0.3813147E-11 -0.3571429E-01   0.0000000E+00 -0.3411994E-15 -0.1000000E+01
 -0.2708947E-01  0.4692038E-01 -0.3571429E-01   0.0000000E+00 -0.3411994E-15 -0.1000000E+01
  0.2708947E-01  0.4692038E-01 -0.3571429E-01   0.0000000E+00 -0.3411994E-15 -0.1000000E+01
  0.5417897E-01 -0.3813153E-11 -0.3571429E-01   0.0000000E+00 -0.3411994E-15 -0.1000000E+01
  0.2708947E-01 -0.4692038E-01 -0.3571429E-01   0.0000000E+00 -0.3411994E-15 -0.1000000E+01
 -0.2708947E-01 -0.4692038E-01 -0.3571429E-01   0.0000000E+00 -0.3411994E-15 -0.1000000E+01
           6
 -0.2708947E-01 -0.4692038E-01  0.3571429E-01  -0.0000000E+00 -0.3411994E-15  0.1000000E+01
  0.2708947E-01 -0.4692038E-01  0.3571429E-01  -0.0000000E+00 -0.3411994E-15  0.1000000E+01
  0.5417897E-01 -0.3813144E-11  0.3571429E-01  -0.0000000E+00 -0.3411994E-15  0.1000000E+01
  0.2708947E-01  0.4692038E-01  0.3571429E-01  -0.0000000E+00 -0.3411994E-15  0.1000000E+01
 -0.2708947E-01  0.4692038E-01  0.3571429E-01  -0.0000000E+00 -0.3411994E-15  0.1000000E+01
 -0.5417897E-01  0.3813147E-11  0.3571429E-01  -0.0000000E+00 -0.3411994E-15  0.1000000E+01
           4
 -0.2708947E-01  0.4692038E-01  0.3571429E-01  -0.1280737E-15  0.1000000E+01  0.1120644E-15
  0.2708947E-01  0.4692038E-01  0.3571429E-01  -0.1280737E-15  0.1000000E+01  0.1120644E-15
  0.2708947E-01  0.4692038E-01 -0.3571429E-01  -0.1280737E-15  0.1000000E+01  0.1120644E-15
 -0.2708947E-01  0.4692038E-01 -0.3571429E-01  -0.1280737E-15  0.1000000E+01  0.1120644E-15
           4
  0.2708947E-01 -0.4692038E-01 -0.3571429E-01   0.8660253E+00 -0.5000002E+00 -0.4353846E-16
  0.5417897E-01 -0.3813147E-11 -0.3571429E-01   0.8660253E+00 -0.5000002E+00 -0.4353846E-16
  0.5417897E-01 -0.3813153E-11  0.3571429E-01   0.8660253E+00 -0.5000002E+00 -0.4353846E-16
  0.2708947E-01 -0.4692038E-01  0.3571429E-01   0.8660253E+00 -0.5000002E+00 -0.4353846E-16
           4
  0.2708947E-01  0.4692038E-01  0.3571429E-01   0.8660253E+00  0.5000002E+00 -0.1712065E-15
  0.5417897E-01 -0.3813134E-11  0.3571429E-01   0.8660253E+00  0.5000002E+00 -0.1712065E-15
  0.5417897E-01 -0.3813147E-11 -0.3571429E-01   0.8660253E+00  0.5000002E+00 -0.1712065E-15
  0.2708947E-01  0.4692038E-01 -0.3571429E-01   0.8660253E+00  0.5000002E+00 -0.1712065E-15
 BRILLOUIN-ZONE-PRIMCELL_END
 BRILLOUIN-ZONE-CONVCELL
           4
 -0.5417897E-01  0.3813147E-11 -0.3571429E-01  -0.8660253E+00 -0.5000002E+00 -0.3418542E-26
 -0.2708947E-01 -0.4692038E-01 -0.3571429E-01  -0.8660253E+00 -0.5000002E+00 -0.3418542E-26
 -0.2708947E-01 -0.4692038E-01  0.3571429E-01  -0.8660253E+00 -0.5000002E+00 -0.3418542E-26
 -0.5417897E-01  0.3813141E-11  0.3571429E-01  -0.8660253E+00 -0.5000002E+00 -0.3418542E-26
           4
 -0.5417897E-01  0.3813147E-11  0.3571429E-01  -0.8660253E+00  0.5000002E+00  0.5603216E-16
 -0.2708947E-01  0.4692038E-01  0.3571429E-01  -0.8660253E+00  0.5000002E+00  0.5603216E-16
 -0.2708947E-01  0.4692038E-01 -0.3571429E-01  -0.8660253E+00  0.5000002E+00  0.5603216E-16
 -0.5417897E-01  0.3813147E-11 -0.3571429E-01  -0.8660253E+00  0.5000002E+00  0.5603216E-16
           4
 -0.2708947E-01 -0.4692038E-01 -0.3571429E-01  -0.3732495E-31 -0.1000000E+01  0.2793475E-16
  0.2708947E-01 -0.4692038E-01 -0.3571429E-01  -0.3732495E-31 -0.1000000E+01  0.2793475E-16
  0.2708947E-01 -0.4692038E-01  0.3571429E-01  -0.3732495E-31 -0.1000000E+01  0.2793475E-16
 -0.2708947E-01 -0.4692038E-01  0.3571429E-01  -0.3732495E-31 -0.1000000E+01  0.2793475E-16
           6
 -0.5417897E-01  0.3813147E-11 -0.3571429E-01   0.0000000E+00 -0.3411994E-15 -0.1000000E+01
 -0.2708947E-01  0.4692038E-01 -0.3571429E-01   0.0000000E+00 -0.3411994E-15 -0.1000000E+01
  0.2708947E-01  0.4692038E-01 -0.3571429E-01   0.0000000E+00 -0.3411994E-15 -0.1000000E+01
  0.5417897E-01 -0.3813153E-11 -0.3571429E-01   0.0000000E+00 -0.3411994E-15 -0.1000000E+01
  0.2708947E-01 -0.4692038E-01 -0.3571429E-01   0.0000000E+00 -0.3411994E-15 -0.1000000E+01
 -0.2708947E-01 -0.4692038E-01 -0.3571429E-01   0.0000000E+00 -0.3411994E-15 -0.1000000E+01
           6
 -0.2708947E-01 -0.4692038E-01  0.3571429E-01  -0.0000000E+00 -0.3411994E-15  0.1000000E+01
  0.2708947E-01 -0.4692038E-01  0.3571429E-01  -0.0000000E+00 -0.3411994E-15  0.1000000E+01
  0.5417897E-01 -0.3813144E-11  0.3571429E-01  -0.0000000E+00 -0.3411994E-15  0.1000000E+01
  0.2708947E-01  0.4692038E-01  0.3571429E-01  -0.0000000E+00 -0.3411994E-15  0.1000000E+01
 -0.2708947E-01  0.4692038E-01  0.3571429E-01  -0.0000000E+00 -0.3411994E-15  0.1000000E+01
 -0.5417897E-01  0.3813147E-11  0.3571429E-01  -0.0000000E+00 -0.3411994E-15  0.1000000E+01
           4
 -0.2708947E-01  0.4692038E-01  0.3571429E-01  -0.1280737E-15  0.1000000E+01  0.1120644E-15
  0.2708947E-01  0.4692038E-01  0.3571429E-01  -0.1280737E-15  0.1000000E+01  0.1120644E-15
  0.2708947E-01  0.4692038E-01 -0.3571429E-01  -0.1280737E-15  0.1000000E+01  0.1120644E-15
 -0.2708947E-01  0.4692038E-01 -0.3571429E-01  -0.1280737E-15  0.1000000E+01  0.1120644E-15
           4
  0.2708947E-01 -0.4692038E-01 -0.3571429E-01   0.8660253E+00 -0.5000002E+00 -0.4353846E-16
  0.5417897E-01 -0.3813147E-11 -0.3571429E-01   0.8660253E+00 -0.5000002E+00 -0.4353846E-16
  0.5417897E-01 -0.3813153E-11  0.3571429E-01   0.8660253E+00 -0.5000002E+00 -0.4353846E-16
  0.2708947E-01 -0.4692038E-01  0.3571429E-01   0.8660253E+00 -0.5000002E+00 -0.4353846E-16
           4
  0.2708947E-01  0.4692038E-01  0.3571429E-01   0.8660253E+00  0.5000002E+00 -0.1712065E-15
  0.5417897E-01 -0.3813134E-11  0.3571429E-01   0.8660253E+00  0.5000002E+00 -0.1712065E-15
  0.5417897E-01 -0.3813147E-11 -0.3571429E-01   0.8660253E+00  0.5000002E+00 -0.1712065E-15
  0.2708947E-01  0.4692038E-01 -0.3571429E-01   0.8660253E+00  0.5000002E+00 -0.1712065E-15
 BRILLOUIN-ZONE-CONVCELL_END
 ATOMS
    6    1.2305023000    0.7104376070    6.9999711790    0.0041303600   -0.0050497500    0.0022229800
    6    0.0000123050    1.4208539020    6.9999711790   -0.0064383900    0.0010521200    0.0022229800
    6   -0.0010432160    2.8419987750    7.0274921940    0.0000627100   -0.0000059400   -0.0002888400
    6   -1.2304838430    3.5521347540    6.9999711790   -0.0013638600   -0.0016619000    0.0042327300
    6   -1.2348829860    4.9705763670    7.0092613400   -0.0001384600   -0.0000650500   -0.0002446900
    6   -2.4609799900    5.6834156060    6.9999711790   -0.0029196800    0.0031593800   -0.0015031100
    6   -2.4613965660    7.1012952880    7.0054999050   -0.0000007900   -0.0000107300   -0.0000980600
    6   -3.6914761380    7.8146964590    6.9999711790    0.0028169600    0.0031502800   -0.0025928900
    6   -3.6914822900    9.2355397040    6.9999711790    0.0123481700   -0.0071292200    0.0012454200
    6   -4.9219784380    9.9459666550    6.9999711790   -0.0118352800    0.0068331000   -0.0048616000
    6    3.6914822900    0.7104376070    6.9999711790   -0.0007573200   -0.0020120900    0.0042327300
    6    2.4617658920    1.4200959370    7.0274921940   -0.0000365000    0.0000513400   -0.0002888400
    6    2.4725882790    2.8383544310    7.1264376720   -0.0000413600   -0.0004199000    0.0000191900
    6    1.2217940490    3.5605004800    7.1264376720   -0.0003429700   -0.0002457700    0.0000191900
    6    1.1954165510    4.9593719280    7.1851530080   -0.0004402200   -0.0001176300    0.0003822100
    6   -0.0078557500    5.6793463190    7.0714311750   -0.0000395600    0.0000285900   -0.0001709200
    6   -0.0040975620    7.1066281310    7.0656494140   -0.0000134500    0.0000077700    0.0002003300
    6   -1.2270163530    7.8126731910    7.0213112370   -0.0003258500    0.0001881300   -0.0001303900
    6   -1.2281286850    9.2373769230    7.0054999050    0.0000089000    0.0000060500   -0.0000980600
    6   -2.4609984480    9.9459666550    6.9999711790   -0.0013197400   -0.0040147000   -0.0025928900
    6    6.1524745850    0.7104376070    6.9999711790    0.0041959500   -0.0009488300   -0.0015031100
    6    4.9220766000    1.4158486450    7.0092613400    0.0000128900   -0.0001524400   -0.0002446900
    6    4.9223945100    2.8328805400    7.0714311750    0.0000445400   -0.0000199700   -0.0001709200
    6    3.6972296510    3.5149359260    7.1851530080    0.0001182400   -0.0004400600    0.0003822100
    6    3.7301708460    4.9506482660    7.4591148170   -0.0000336600    0.0000194300    0.0000455700
    6    2.4223037390    5.7057453400    7.4591148170    0.0000336600   -0.0000194300    0.0000455700
    6    2.4552449350    7.1414576790    7.1851530080   -0.0001182400    0.0004400600    0.0003822100
    6    1.2300800760    7.8235130650    7.0714311750   -0.0000445400    0.0000199700   -0.0001709200
    6    1.2303979850    9.2405449600    7.0092613400   -0.0000128900    0.0001524400   -0.0002446900
    6   -0.0000061520    9.9459666550    6.9999711790   -0.0041959500    0.0009488300   -0.0015031100
    6    8.6134668800    0.7104376070    6.9999711790    0.0013197400    0.0040147000   -0.0025928900
    6    7.3806032700    1.4190166830    7.0054999050   -0.0000089000   -0.0000060500   -0.0000980600
    6    7.3794909380    2.8437204150    7.0213112370    0.0003258500   -0.0001881300   -0.0001303900
    6    6.1565721480    3.5497654740    7.0656494140    0.0000134500   -0.0000077700    0.0002003300
    6    6.1603303350    4.9770472870    7.0714311750    0.0000395600   -0.0000285900   -0.0001709200
    6    4.9570580340    5.6970216780    7.1851530080    0.0004402200    0.0001176300    0.0003822100
    6    4.9306805370    7.0958931260    7.1264376720    0.0003429700    0.0002457700    0.0000191900
    6    3.6798863060    7.8180391750    7.1264376720    0.0000413600    0.0004199000    0.0000191900
    6    3.6907086930    9.2362976690    7.0274921940    0.0000365000   -0.0000513400   -0.0002888400
    6    2.4609861430    9.9459666550    6.9999711790    0.0007573200    0.0020120900    0.0042327300
    6   11.0744468710    0.7104376070    6.9999711790    0.0118352800   -0.0068331000   -0.0048616000
    6    9.8439568750    1.4208539020    6.9999711790   -0.0123481700    0.0071292200    0.0012454200
    6    9.8439507230    2.8416971470    6.9999711790   -0.0028169600   -0.0031502800   -0.0025928900
    6    8.6138711520    3.5550983170    7.0054999050    0.0000007900    0.0000107300   -0.0000980600
    6    8.6134545760    4.9729779990    6.9999711790    0.0029196800   -0.0031593800   -0.0015031100
    6    7.3873575710    5.6858172390    7.0092613400    0.0001384600    0.0000650500   -0.0002446900
    6    7.3829584280    7.1042588520    6.9999711790    0.0013638600    0.0016619000    0.0042327300
    6    6.1535178010    7.8143948310    7.0274921940   -0.0000627100    0.0000059400   -0.0002888400
    6    6.1524622800    9.2355397040    6.9999711790    0.0064383900   -0.0010521200    0.0022229800
    6    4.9219661330    9.9459666550    6.9999711790   -0.0041303600    0.0050497500    0.0022229800
    8    3.0762249880    5.3281754900    8.7170992300    0.0000000000    0.0000000000   -0.0008330400
 FRAMES
1      0.0000000000    0.0000000000    0.0000000000     12.3048999510    0.0000000000    0.0000000000
1      0.0000000000    0.0000000000    0.0000000000     -6.1524499750   10.6563509800    0.0000000000
1      0.0000000000    0.0000000000    0.0000000000      0.0000000000    0.0000000000   13.9999983580
1      0.0000000000    0.0000000000   13.9999983580     12.3048999510    0.0000000000   13.9999983580
1      0.0000000000    0.0000000000   13.9999983580     -6.1524499750   10.6563509800   13.9999983580
1     -6.1524499750   10.6563509800    0.0000000000      6.1524499760   10.6563509800    0.0000000000
1     -6.1524499750   10.6563509800    0.0000000000     -6.1524499750   10.6563509800   13.9999983580
1     -6.1524499750   10.6563509800   13.9999983580      6.1524499760   10.6563509800   13.9999983580
1     12.3048999510    0.0000000000    0.0000000000      6.1524499760   10.6563509800    0.0000000000
1     12.3048999510    0.0000000000    0.0000000000     12.3048999510    0.0000000000   13.9999983580
1     12.3048999510    0.0000000000   13.9999983580      6.1524499760   10.6563509800   13.9999983580
1      6.1524499760   10.6563509800    0.0000000000      6.1524499760   10.6563509800   13.9999983580
