 INFO
nunit      1    1    1
unit   cell
celltype   primcell
shape   parapipedal
 END_INFO
 DIM-GROUP
           3           9
 PRIMVEC
   12.3048999510    0.0000000000    0.0000000000
   -6.1524499750   10.6563509800    0.0000000000
    0.0000000000    0.0000000000   13.9999983580
 CONVVEC
   12.3048999510    0.0000000000    0.0000000000
   -6.1524499750   10.6563509800    0.0000000000
    0.0000000000    0.0000000000   13.9999983580
 PRIMCOORD
          52           1
  6      1.2305023000     0.7104376070     6.9999711790     0.0820523400     0.0043719300     0.0609383600
  6      0.0000123050     1.4208539020     6.9999711790    -0.0372399600     0.0732453700     0.0609383600
  6     -0.0038262520     2.8827347650     6.8838528690    -0.0001040400    -0.0000207500     0.0000828500
  6     -1.2304838430     3.5521347540     6.9999711790     0.0130963600     0.0171185200    -0.0292585200
  6     -1.2361681470     4.9739028110     6.9957829680    -0.0000707500     0.0000540800    -0.0001584500
  6     -2.4609799900     5.6834156060     6.9999711790    -0.0093138800     0.0020722600     0.0012526600
  6     -2.4603600630     7.1027166750     7.0043053270    -0.0000334000     0.0000384600    -0.0004180200
  6     -3.6914761380     7.8146964590     6.9999711790    -0.0013770000     0.0023084300     0.0001470400
  6     -3.6914822900     9.2355397040     6.9999711790    -0.0032795200    -0.0016816700    -0.0045696000
  6     -4.9219784380     9.9459666550     6.9999711790    -0.0240734400    -0.0936714800    -0.0369139200
  6      3.6914822900     0.7104376070     6.9999711790     0.0082768900     0.0199010400    -0.0292585200
  6      2.4984358290     1.4380537530     6.8838528690     0.0000340500    -0.0001004700     0.0000828500
  6      2.4849666760     2.8391062360     6.9456752240     0.0002687200    -0.0002235000    -0.0003841800
  6      1.2162559330     3.5715963840     6.9456752240    -0.0003279200     0.0001209600    -0.0003841800
  6      1.1965001390     4.9682321610     7.0455392980    -0.0001809700    -0.0004901600     0.0006065100
  6     -0.0097638950     5.6838523140     7.0026736550    -0.0000296600    -0.0003743300     0.0000569300
  6     -0.0050404870     7.1141213360     7.0182768910    -0.0004105600    -0.0000785500     0.0000320300
  6     -1.2322880980     7.8146141490     7.0112876720     0.0001736700     0.0001975000    -0.0007979500
  6     -1.2347276610     9.2413224260     7.0075202580    -0.0000620000    -0.0000495300    -0.0001263400
  6     -2.4609984480     9.9459666550     6.9999711790     0.0006626300    -0.0138427700     0.0060042500
  6      6.1524745850     0.7104376070     6.9999711790     0.0064515700    -0.0070299200     0.0012526600
  6      4.9255999670     1.4163988860     6.9957829680     0.0000822100    -0.0000342300    -0.0001584500
  6      4.9272508900     2.8334810360     7.0026736550    -0.0003093500    -0.0002128500     0.0000569300
  6      3.7043610480     3.5203044570     7.0455392980    -0.0003340100    -0.0004018000     0.0006065100
  6      3.7277627590     4.9514224180     7.3376937280     0.0000321500    -0.0001908700     0.0001343300
  6      2.4241782190     5.7040469520     7.3376937280    -0.0001813700    -0.0000675900     0.0001343300
  6      2.4598883240     7.1438797400     7.1060065370    -0.0001173500    -0.0001996900     0.0006726300
  6      1.2222371170     7.8291610590     7.0179946510     0.0000071800    -0.0001134200     0.0000992000
  6      1.2284133890     9.2419275360     6.9971749460    -0.0001029500    -0.0005181600    -0.0003879200
  6     -0.0000061520     9.9459666550     6.9999711790    -0.0079758300     0.0130900000    -0.0008220400
  6      8.6134668800     0.7104376070     6.9999711790     0.0026876600    -0.0000383000     0.0001470400
  6      7.3813159760     1.4206250140     7.0043053270     0.0000500100    -0.0000097000    -0.0004180200
  6      7.3838077310     2.8401254310     7.0112876720     0.0000842000     0.0002491500    -0.0007979500
  6      6.1635329190     3.5526954810     7.0182768910     0.0001372500    -0.0003948300     0.0000320300
  6      6.1691431230     4.9730790850     7.0179946510    -0.0001018200    -0.0000504900     0.0000992000
  6      4.9568339060     5.7022539990     7.1060065370    -0.0001142600    -0.0002014700     0.0006726300
  6      4.9353167710     7.0923901170     7.0843021010     0.0000882900    -0.0000567700     0.0002265000
  6      3.6745344930     7.8203027650     7.0843021010    -0.0000933100     0.0000480700     0.0002265000
  6      3.6898833850     9.2400862040     7.0182636190     0.0000182400    -0.0000987400     0.0001802100
  6      2.4609861430     9.9459666550     6.9999711790    -0.0003124900     0.0080976400     0.0015127300
  6     11.0744468710     0.7104376070     6.9999711790    -0.0690851600    -0.0676839500    -0.0369139200
  6      9.8439568750     1.4208539020     6.9999711790     0.0001834000    -0.0036809800    -0.0045696000
  6      9.8439507230     2.8416971470     6.9999711790    -0.0123195100    -0.0063475300     0.0060042500
  6      8.6205875480     3.5513561900     7.0075202580    -0.0000119000    -0.0000784600    -0.0001263400
  6      8.6134545760     4.9729779990     6.9999711790     0.0153241900    -0.0003622700    -0.0008220400
  6      7.3895472160     5.6847898170     6.9971749460    -0.0003972700    -0.0003482400    -0.0003879200
  6      7.3829584280     7.1042588520     6.9999711790     0.0071690100     0.0037781900     0.0015127300
  6      6.1572114240     7.8155743610     7.0182636190    -0.0000946300    -0.0000335700     0.0001802100
  6      6.1524622800     9.2355397040     6.9999711790     0.0665961900    -0.0028125300     0.0019842500
  6      4.9219661330     9.9459666550     6.9999711790    -0.0357338200     0.0562677200     0.0019842500
  8      3.0551745340     5.2917150520     8.5985747680     0.0001504900     0.0002606600    -0.0000419700
  8      0.6519249450     1.1291666000     8.3452510830     0.0001614200     0.0002796000    -0.0001451100
 CONVCOORD
          52           1
  6      1.2305023000     0.7104376070     6.9999711790
  6      0.0000123050     1.4208539020     6.9999711790
  6     -0.0038262520     2.8827347650     6.8838528690
  6     -1.2304838430     3.5521347540     6.9999711790
  6     -1.2361681470     4.9739028110     6.9957829680
  6     -2.4609799900     5.6834156060     6.9999711790
  6     -2.4603600630     7.1027166750     7.0043053270
  6     -3.6914761380     7.8146964590     6.9999711790
  6     -3.6914822900     9.2355397040     6.9999711790
  6     -4.9219784380     9.9459666550     6.9999711790
  6      3.6914822900     0.7104376070     6.9999711790
  6      2.4984358290     1.4380537530     6.8838528690
  6      2.4849666760     2.8391062360     6.9456752240
  6      1.2162559330     3.5715963840     6.9456752240
  6      1.1965001390     4.9682321610     7.0455392980
  6     -0.0097638950     5.6838523140     7.0026736550
  6     -0.0050404870     7.1141213360     7.0182768910
  6     -1.2322880980     7.8146141490     7.0112876720
  6     -1.2347276610     9.2413224260     7.0075202580
  6     -2.4609984480     9.9459666550     6.9999711790
  6      6.1524745850     0.7104376070     6.9999711790
  6      4.9255999670     1.4163988860     6.9957829680
  6      4.9272508900     2.8334810360     7.0026736550
  6      3.7043610480     3.5203044570     7.0455392980
  6      3.7277627590     4.9514224180     7.3376937280
  6      2.4241782190     5.7040469520     7.3376937280
  6      2.4598883240     7.1438797400     7.1060065370
  6      1.2222371170     7.8291610590     7.0179946510
  6      1.2284133890     9.2419275360     6.9971749460
  6     -0.0000061520     9.9459666550     6.9999711790
  6      8.6134668800     0.7104376070     6.9999711790
  6      7.3813159760     1.4206250140     7.0043053270
  6      7.3838077310     2.8401254310     7.0112876720
  6      6.1635329190     3.5526954810     7.0182768910
  6      6.1691431230     4.9730790850     7.0179946510
  6      4.9568339060     5.7022539990     7.1060065370
  6      4.9353167710     7.0923901170     7.0843021010
  6      3.6745344930     7.8203027650     7.0843021010
  6      3.6898833850     9.2400862040     7.0182636190
  6      2.4609861430     9.9459666550     6.9999711790
  6     11.0744468710     0.7104376070     6.9999711790
  6      9.8439568750     1.4208539020     6.9999711790
  6      9.8439507230     2.8416971470     6.9999711790
  6      8.6205875480     3.5513561900     7.0075202580
  6      8.6134545760     4.9729779990     6.9999711790
  6      7.3895472160     5.6847898170     6.9971749460
  6      7.3829584280     7.1042588520     6.9999711790
  6      6.1572114240     7.8155743610     7.0182636190
  6      6.1524622800     9.2355397040     6.9999711790
  6      4.9219661330     9.9459666550     6.9999711790
  8      3.0551745340     5.2917150520     8.5985747680
  8      0.6519249450     1.1291666000     8.3452510830
 RECIP-PRIMVEC
    0.0812684381    0.0469203765   -0.0000000000

    0.0000000000    0.0938407530    0.0000000000

    0.0000000000   -0.0000000000    0.0714285798

 RECIP-CONVVEC
    0.0812684381    0.0469203765   -0.0000000000

    0.0000000000    0.0938407530    0.0000000000

    0.0000000000   -0.0000000000    0.0714285798

 WIGNER-SEITZ-PRIMCELL
           4
  0.6152450E+01 -0.3552115E+01 -0.6999999E+01   0.1000000E+01 -0.0000000E+00 -0.0000000E+00
  0.6152450E+01  0.3552115E+01 -0.6999999E+01   0.1000000E+01 -0.0000000E+00 -0.0000000E+00
  0.6152450E+01  0.3552115E+01  0.6999999E+01   0.1000000E+01 -0.0000000E+00 -0.0000000E+00
  0.6152450E+01 -0.3552115E+01  0.6999999E+01   0.1000000E+01 -0.0000000E+00 -0.0000000E+00
           4
  0.6152450E+01 -0.3552115E+01  0.6999999E+01   0.5000002E+00 -0.8660253E+00 -0.1435454E-15
 -0.4999987E-09 -0.7104236E+01  0.6999999E+01   0.5000002E+00 -0.8660253E+00 -0.1435454E-15
 -0.5000007E-09 -0.7104236E+01 -0.6999999E+01   0.5000002E+00 -0.8660253E+00 -0.1435454E-15
  0.6152450E+01 -0.3552115E+01 -0.6999999E+01   0.5000002E+00 -0.8660253E+00 -0.1435454E-15
           4
  0.6152450E+01  0.3552115E+01 -0.6999999E+01   0.5000002E+00  0.8660253E+00 -0.7210489E-16
  0.4999987E-09  0.7104236E+01 -0.6999999E+01   0.5000002E+00  0.8660253E+00 -0.7210489E-16
  0.5000007E-09  0.7104236E+01  0.6999999E+01   0.5000002E+00  0.8660253E+00 -0.7210489E-16
  0.6152450E+01  0.3552115E+01  0.6999999E+01   0.5000002E+00  0.8660253E+00 -0.7210489E-16
           6
 -0.6152450E+01 -0.3552115E+01 -0.6999999E+01  -0.1625643E-15  0.0000000E+00 -0.1000000E+01
 -0.6152450E+01  0.3552115E+01 -0.6999999E+01  -0.1625643E-15  0.0000000E+00 -0.1000000E+01
  0.4999987E-09  0.7104236E+01 -0.6999999E+01  -0.1625643E-15  0.0000000E+00 -0.1000000E+01
  0.6152450E+01  0.3552115E+01 -0.6999999E+01  -0.1625643E-15  0.0000000E+00 -0.1000000E+01
  0.6152450E+01 -0.3552115E+01 -0.6999999E+01  -0.1625643E-15  0.0000000E+00 -0.1000000E+01
 -0.5000007E-09 -0.7104236E+01 -0.6999999E+01  -0.1625643E-15  0.0000000E+00 -0.1000000E+01
           6
 -0.5000007E-09 -0.7104236E+01  0.6999999E+01  -0.3251285E-15 -0.0000000E+00  0.1000000E+01
  0.6152450E+01 -0.3552115E+01  0.6999999E+01  -0.3251285E-15 -0.0000000E+00  0.1000000E+01
  0.6152450E+01  0.3552115E+01  0.6999999E+01  -0.3251285E-15 -0.0000000E+00  0.1000000E+01
  0.4999987E-09  0.7104236E+01  0.6999999E+01  -0.3251285E-15 -0.0000000E+00  0.1000000E+01
 -0.6152450E+01  0.3552115E+01  0.6999999E+01  -0.3251285E-15 -0.0000000E+00  0.1000000E+01
 -0.6152450E+01 -0.3552115E+01  0.6999999E+01  -0.3251285E-15 -0.0000000E+00  0.1000000E+01
           4
 -0.6152450E+01 -0.3552115E+01  0.6999999E+01  -0.5000002E+00 -0.8660253E+00  0.0000000E+00
 -0.6152450E+01 -0.3552115E+01 -0.6999999E+01  -0.5000002E+00 -0.8660253E+00  0.0000000E+00
 -0.5000007E-09 -0.7104236E+01 -0.6999999E+01  -0.5000002E+00 -0.8660253E+00  0.0000000E+00
 -0.4999997E-09 -0.7104236E+01  0.6999999E+01  -0.5000002E+00 -0.8660253E+00  0.0000000E+00
           4
  0.4999997E-09  0.7104236E+01  0.6999999E+01  -0.5000002E+00  0.8660253E+00  0.1428811E-15
  0.4999987E-09  0.7104236E+01 -0.6999999E+01  -0.5000002E+00  0.8660253E+00  0.1428811E-15
 -0.6152450E+01  0.3552115E+01 -0.6999999E+01  -0.5000002E+00  0.8660253E+00  0.1428811E-15
 -0.6152450E+01  0.3552115E+01  0.6999999E+01  -0.5000002E+00  0.8660253E+00  0.1428811E-15
           4
 -0.6152450E+01 -0.3552115E+01  0.6999999E+01  -0.1000000E+01  0.0000000E+00  0.6344132E-16
 -0.6152450E+01  0.3552115E+01  0.6999999E+01  -0.1000000E+01  0.0000000E+00  0.6344132E-16
 -0.6152450E+01  0.3552115E+01 -0.6999999E+01  -0.1000000E+01  0.0000000E+00  0.6344132E-16
 -0.6152450E+01 -0.3552115E+01 -0.6999999E+01  -0.1000000E+01  0.0000000E+00  0.6344132E-16
 WIGNER-SEITZ-PRIMCELL_END
 WIGNER-SEITZ-CONVCELL
           4
  0.6152450E+01 -0.3552115E+01 -0.6999999E+01   0.1000000E+01 -0.0000000E+00 -0.0000000E+00
  0.6152450E+01  0.3552115E+01 -0.6999999E+01   0.1000000E+01 -0.0000000E+00 -0.0000000E+00
  0.6152450E+01  0.3552115E+01  0.6999999E+01   0.1000000E+01 -0.0000000E+00 -0.0000000E+00
  0.6152450E+01 -0.3552115E+01  0.6999999E+01   0.1000000E+01 -0.0000000E+00 -0.0000000E+00
           4
  0.6152450E+01 -0.3552115E+01  0.6999999E+01   0.5000002E+00 -0.8660253E+00 -0.1435454E-15
 -0.4999987E-09 -0.7104236E+01  0.6999999E+01   0.5000002E+00 -0.8660253E+00 -0.1435454E-15
 -0.5000007E-09 -0.7104236E+01 -0.6999999E+01   0.5000002E+00 -0.8660253E+00 -0.1435454E-15
  0.6152450E+01 -0.3552115E+01 -0.6999999E+01   0.5000002E+00 -0.8660253E+00 -0.1435454E-15
           4
  0.6152450E+01  0.3552115E+01 -0.6999999E+01   0.5000002E+00  0.8660253E+00 -0.7210489E-16
  0.4999987E-09  0.7104236E+01 -0.6999999E+01   0.5000002E+00  0.8660253E+00 -0.7210489E-16
  0.5000007E-09  0.7104236E+01  0.6999999E+01   0.5000002E+00  0.8660253E+00 -0.7210489E-16
  0.6152450E+01  0.3552115E+01  0.6999999E+01   0.5000002E+00  0.8660253E+00 -0.7210489E-16
           6
 -0.6152450E+01 -0.3552115E+01 -0.6999999E+01  -0.1625643E-15  0.0000000E+00 -0.1000000E+01
 -0.6152450E+01  0.3552115E+01 -0.6999999E+01  -0.1625643E-15  0.0000000E+00 -0.1000000E+01
  0.4999987E-09  0.7104236E+01 -0.6999999E+01  -0.1625643E-15  0.0000000E+00 -0.1000000E+01
  0.6152450E+01  0.3552115E+01 -0.6999999E+01  -0.1625643E-15  0.0000000E+00 -0.1000000E+01
  0.6152450E+01 -0.3552115E+01 -0.6999999E+01  -0.1625643E-15  0.0000000E+00 -0.1000000E+01
 -0.5000007E-09 -0.7104236E+01 -0.6999999E+01  -0.1625643E-15  0.0000000E+00 -0.1000000E+01
           6
 -0.5000007E-09 -0.7104236E+01  0.6999999E+01  -0.3251285E-15 -0.0000000E+00  0.1000000E+01
  0.6152450E+01 -0.3552115E+01  0.6999999E+01  -0.3251285E-15 -0.0000000E+00  0.1000000E+01
  0.6152450E+01  0.3552115E+01  0.6999999E+01  -0.3251285E-15 -0.0000000E+00  0.1000000E+01
  0.4999987E-09  0.7104236E+01  0.6999999E+01  -0.3251285E-15 -0.0000000E+00  0.1000000E+01
 -0.6152450E+01  0.3552115E+01  0.6999999E+01  -0.3251285E-15 -0.0000000E+00  0.1000000E+01
 -0.6152450E+01 -0.3552115E+01  0.6999999E+01  -0.3251285E-15 -0.0000000E+00  0.1000000E+01
           4
 -0.6152450E+01 -0.3552115E+01  0.6999999E+01  -0.5000002E+00 -0.8660253E+00  0.0000000E+00
 -0.6152450E+01 -0.3552115E+01 -0.6999999E+01  -0.5000002E+00 -0.8660253E+00  0.0000000E+00
 -0.5000007E-09 -0.7104236E+01 -0.6999999E+01  -0.5000002E+00 -0.8660253E+00  0.0000000E+00
 -0.4999997E-09 -0.7104236E+01  0.6999999E+01  -0.5000002E+00 -0.8660253E+00  0.0000000E+00
           4
  0.4999997E-09  0.7104236E+01  0.6999999E+01  -0.5000002E+00  0.8660253E+00  0.1428811E-15
  0.4999987E-09  0.7104236E+01 -0.6999999E+01  -0.5000002E+00  0.8660253E+00  0.1428811E-15
 -0.6152450E+01  0.3552115E+01 -0.6999999E+01  -0.5000002E+00  0.8660253E+00  0.1428811E-15
 -0.6152450E+01  0.3552115E+01  0.6999999E+01  -0.5000002E+00  0.8660253E+00  0.1428811E-15
           4
 -0.6152450E+01 -0.3552115E+01  0.6999999E+01  -0.1000000E+01  0.0000000E+00  0.6344132E-16
 -0.6152450E+01  0.3552115E+01  0.6999999E+01  -0.1000000E+01  0.0000000E+00  0.6344132E-16
 -0.6152450E+01  0.3552115E+01 -0.6999999E+01  -0.1000000E+01  0.0000000E+00  0.6344132E-16
 -0.6152450E+01 -0.3552115E+01 -0.6999999E+01  -0.1000000E+01  0.0000000E+00  0.6344132E-16
 WIGNER-SEITZ-CONVCELL_END
 BRILLOUIN-ZONE-PRIMCELL
           4
 -0.5417897E-01  0.3813147E-11 -0.3571429E-01  -0.8660253E+00 -0.5000002E+00 -0.3418542E-26
 -0.2708947E-01 -0.4692038E-01 -0.3571429E-01  -0.8660253E+00 -0.5000002E+00 -0.3418542E-26
 -0.2708947E-01 -0.4692038E-01  0.3571429E-01  -0.8660253E+00 -0.5000002E+00 -0.3418542E-26
 -0.5417897E-01  0.3813141E-11  0.3571429E-01  -0.8660253E+00 -0.5000002E+00 -0.3418542E-26
           4
 -0.5417897E-01  0.3813147E-11  0.3571429E-01  -0.8660253E+00  0.5000002E+00  0.5603216E-16
 -0.2708947E-01  0.4692038E-01  0.3571429E-01  -0.8660253E+00  0.5000002E+00  0.5603216E-16
 -0.2708947E-01  0.4692038E-01 -0.3571429E-01  -0.8660253E+00  0.5000002E+00  0.5603216E-16
 -0.5417897E-01  0.3813147E-11 -0.3571429E-01  -0.8660253E+00  0.5000002E+00  0.5603216E-16
           4
 -0.2708947E-01 -0.4692038E-01 -0.3571429E-01  -0.3732495E-31 -0.1000000E+01  0.2793475E-16
  0.2708947E-01 -0.4692038E-01 -0.3571429E-01  -0.3732495E-31 -0.1000000E+01  0.2793475E-16
  0.2708947E-01 -0.4692038E-01  0.3571429E-01  -0.3732495E-31 -0.1000000E+01  0.2793475E-16
 -0.2708947E-01 -0.4692038E-01  0.3571429E-01  -0.3732495E-31 -0.1000000E+01  0.2793475E-16
           6
 -0.5417897E-01  0.3813147E-11 -0.3571429E-01   0.0000000E+00 -0.3411994E-15 -0.1000000E+01
 -0.2708947E-01  0.4692038E-01 -0.3571429E-01   0.0000000E+00 -0.3411994E-15 -0.1000000E+01
  0.2708947E-01  0.4692038E-01 -0.3571429E-01   0.0000000E+00 -0.3411994E-15 -0.1000000E+01
  0.5417897E-01 -0.3813153E-11 -0.3571429E-01   0.0000000E+00 -0.3411994E-15 -0.1000000E+01
  0.2708947E-01 -0.4692038E-01 -0.3571429E-01   0.0000000E+00 -0.3411994E-15 -0.1000000E+01
 -0.2708947E-01 -0.4692038E-01 -0.3571429E-01   0.0000000E+00 -0.3411994E-15 -0.1000000E+01
           6
 -0.2708947E-01 -0.4692038E-01  0.3571429E-01  -0.0000000E+00 -0.3411994E-15  0.1000000E+01
  0.2708947E-01 -0.4692038E-01  0.3571429E-01  -0.0000000E+00 -0.3411994E-15  0.1000000E+01
  0.5417897E-01 -0.3813144E-11  0.3571429E-01  -0.0000000E+00 -0.3411994E-15  0.1000000E+01
  0.2708947E-01  0.4692038E-01  0.3571429E-01  -0.0000000E+00 -0.3411994E-15  0.1000000E+01
 -0.2708947E-01  0.4692038E-01  0.3571429E-01  -0.0000000E+00 -0.3411994E-15  0.1000000E+01
 -0.5417897E-01  0.3813147E-11  0.3571429E-01  -0.0000000E+00 -0.3411994E-15  0.1000000E+01
           4
 -0.2708947E-01  0.4692038E-01  0.3571429E-01  -0.1280737E-15  0.1000000E+01  0.1120644E-15
  0.2708947E-01  0.4692038E-01  0.3571429E-01  -0.1280737E-15  0.1000000E+01  0.1120644E-15
  0.2708947E-01  0.4692038E-01 -0.3571429E-01  -0.1280737E-15  0.1000000E+01  0.1120644E-15
 -0.2708947E-01  0.4692038E-01 -0.3571429E-01  -0.1280737E-15  0.1000000E+01  0.1120644E-15
           4
  0.2708947E-01 -0.4692038E-01 -0.3571429E-01   0.8660253E+00 -0.5000002E+00 -0.4353846E-16
  0.5417897E-01 -0.3813147E-11 -0.3571429E-01   0.8660253E+00 -0.5000002E+00 -0.4353846E-16
  0.5417897E-01 -0.3813153E-11  0.3571429E-01   0.8660253E+00 -0.5000002E+00 -0.4353846E-16
  0.2708947E-01 -0.4692038E-01  0.3571429E-01   0.8660253E+00 -0.5000002E+00 -0.4353846E-16
           4
  0.2708947E-01  0.4692038E-01  0.3571429E-01   0.8660253E+00  0.5000002E+00 -0.1712065E-15
  0.5417897E-01 -0.3813134E-11  0.3571429E-01   0.8660253E+00  0.5000002E+00 -0.1712065E-15
  0.5417897E-01 -0.3813147E-11 -0.3571429E-01   0.8660253E+00  0.5000002E+00 -0.1712065E-15
  0.2708947E-01  0.4692038E-01 -0.3571429E-01   0.8660253E+00  0.5000002E+00 -0.1712065E-15
 BRILLOUIN-ZONE-PRIMCELL_END
 BRILLOUIN-ZONE-CONVCELL
           4
 -0.5417897E-01  0.3813147E-11 -0.3571429E-01  -0.8660253E+00 -0.5000002E+00 -0.3418542E-26
 -0.2708947E-01 -0.4692038E-01 -0.3571429E-01  -0.8660253E+00 -0.5000002E+00 -0.3418542E-26
 -0.2708947E-01 -0.4692038E-01  0.3571429E-01  -0.8660253E+00 -0.5000002E+00 -0.3418542E-26
 -0.5417897E-01  0.3813141E-11  0.3571429E-01  -0.8660253E+00 -0.5000002E+00 -0.3418542E-26
           4
 -0.5417897E-01  0.3813147E-11  0.3571429E-01  -0.8660253E+00  0.5000002E+00  0.5603216E-16
 -0.2708947E-01  0.4692038E-01  0.3571429E-01  -0.8660253E+00  0.5000002E+00  0.5603216E-16
 -0.2708947E-01  0.4692038E-01 -0.3571429E-01  -0.8660253E+00  0.5000002E+00  0.5603216E-16
 -0.5417897E-01  0.3813147E-11 -0.3571429E-01  -0.8660253E+00  0.5000002E+00  0.5603216E-16
           4
 -0.2708947E-01 -0.4692038E-01 -0.3571429E-01  -0.3732495E-31 -0.1000000E+01  0.2793475E-16
  0.2708947E-01 -0.4692038E-01 -0.3571429E-01  -0.3732495E-31 -0.1000000E+01  0.2793475E-16
  0.2708947E-01 -0.4692038E-01  0.3571429E-01  -0.3732495E-31 -0.1000000E+01  0.2793475E-16
 -0.2708947E-01 -0.4692038E-01  0.3571429E-01  -0.3732495E-31 -0.1000000E+01  0.2793475E-16
           6
 -0.5417897E-01  0.3813147E-11 -0.3571429E-01   0.0000000E+00 -0.3411994E-15 -0.1000000E+01
 -0.2708947E-01  0.4692038E-01 -0.3571429E-01   0.0000000E+00 -0.3411994E-15 -0.1000000E+01
  0.2708947E-01  0.4692038E-01 -0.3571429E-01   0.0000000E+00 -0.3411994E-15 -0.1000000E+01
  0.5417897E-01 -0.3813153E-11 -0.3571429E-01   0.0000000E+00 -0.3411994E-15 -0.1000000E+01
  0.2708947E-01 -0.4692038E-01 -0.3571429E-01   0.0000000E+00 -0.3411994E-15 -0.1000000E+01
 -0.2708947E-01 -0.4692038E-01 -0.3571429E-01   0.0000000E+00 -0.3411994E-15 -0.1000000E+01
           6
 -0.2708947E-01 -0.4692038E-01  0.3571429E-01  -0.0000000E+00 -0.3411994E-15  0.1000000E+01
  0.2708947E-01 -0.4692038E-01  0.3571429E-01  -0.0000000E+00 -0.3411994E-15  0.1000000E+01
  0.5417897E-01 -0.3813144E-11  0.3571429E-01  -0.0000000E+00 -0.3411994E-15  0.1000000E+01
  0.2708947E-01  0.4692038E-01  0.3571429E-01  -0.0000000E+00 -0.3411994E-15  0.1000000E+01
 -0.2708947E-01  0.4692038E-01  0.3571429E-01  -0.0000000E+00 -0.3411994E-15  0.1000000E+01
 -0.5417897E-01  0.3813147E-11  0.3571429E-01  -0.0000000E+00 -0.3411994E-15  0.1000000E+01
           4
 -0.2708947E-01  0.4692038E-01  0.3571429E-01  -0.1280737E-15  0.1000000E+01  0.1120644E-15
  0.2708947E-01  0.4692038E-01  0.3571429E-01  -0.1280737E-15  0.1000000E+01  0.1120644E-15
  0.2708947E-01  0.4692038E-01 -0.3571429E-01  -0.1280737E-15  0.1000000E+01  0.1120644E-15
 -0.2708947E-01  0.4692038E-01 -0.3571429E-01  -0.1280737E-15  0.1000000E+01  0.1120644E-15
           4
  0.2708947E-01 -0.4692038E-01 -0.3571429E-01   0.8660253E+00 -0.5000002E+00 -0.4353846E-16
  0.5417897E-01 -0.3813147E-11 -0.3571429E-01   0.8660253E+00 -0.5000002E+00 -0.4353846E-16
  0.5417897E-01 -0.3813153E-11  0.3571429E-01   0.8660253E+00 -0.5000002E+00 -0.4353846E-16
  0.2708947E-01 -0.4692038E-01  0.3571429E-01   0.8660253E+00 -0.5000002E+00 -0.4353846E-16
           4
  0.2708947E-01  0.4692038E-01  0.3571429E-01   0.8660253E+00  0.5000002E+00 -0.1712065E-15
  0.5417897E-01 -0.3813134E-11  0.3571429E-01   0.8660253E+00  0.5000002E+00 -0.1712065E-15
  0.5417897E-01 -0.3813147E-11 -0.3571429E-01   0.8660253E+00  0.5000002E+00 -0.1712065E-15
  0.2708947E-01  0.4692038E-01 -0.3571429E-01   0.8660253E+00  0.5000002E+00 -0.1712065E-15
 BRILLOUIN-ZONE-CONVCELL_END
 ATOMS
    6    1.2305023000    0.7104376070    6.9999711790    0.0820523400    0.0043719300    0.0609383600
    6    0.0000123050    1.4208539020    6.9999711790   -0.0372399600    0.0732453700    0.0609383600
    6   -0.0038262520    2.8827347650    6.8838528690   -0.0001040400   -0.0000207500    0.0000828500
    6   -1.2304838430    3.5521347540    6.9999711790    0.0130963600    0.0171185200   -0.0292585200
    6   -1.2361681470    4.9739028110    6.9957829680   -0.0000707500    0.0000540800   -0.0001584500
    6   -2.4609799900    5.6834156060    6.9999711790   -0.0093138800    0.0020722600    0.0012526600
    6   -2.4603600630    7.1027166750    7.0043053270   -0.0000334000    0.0000384600   -0.0004180200
    6   -3.6914761380    7.8146964590    6.9999711790   -0.0013770000    0.0023084300    0.0001470400
    6   -3.6914822900    9.2355397040    6.9999711790   -0.0032795200   -0.0016816700   -0.0045696000
    6   -4.9219784380    9.9459666550    6.9999711790   -0.0240734400   -0.0936714800   -0.0369139200
    6    3.6914822900    0.7104376070    6.9999711790    0.0082768900    0.0199010400   -0.0292585200
    6    2.4984358290    1.4380537530    6.8838528690    0.0000340500   -0.0001004700    0.0000828500
    6    2.4849666760    2.8391062360    6.9456752240    0.0002687200   -0.0002235000   -0.0003841800
    6    1.2162559330    3.5715963840    6.9456752240   -0.0003279200    0.0001209600   -0.0003841800
    6    1.1965001390    4.9682321610    7.0455392980   -0.0001809700   -0.0004901600    0.0006065100
    6   -0.0097638950    5.6838523140    7.0026736550   -0.0000296600   -0.0003743300    0.0000569300
    6   -0.0050404870    7.1141213360    7.0182768910   -0.0004105600   -0.0000785500    0.0000320300
    6   -1.2322880980    7.8146141490    7.0112876720    0.0001736700    0.0001975000   -0.0007979500
    6   -1.2347276610    9.2413224260    7.0075202580   -0.0000620000   -0.0000495300   -0.0001263400
    6   -2.4609984480    9.9459666550    6.9999711790    0.0006626300   -0.0138427700    0.0060042500
    6    6.1524745850    0.7104376070    6.9999711790    0.0064515700   -0.0070299200    0.0012526600
    6    4.9255999670    1.4163988860    6.9957829680    0.0000822100   -0.0000342300   -0.0001584500
    6    4.9272508900    2.8334810360    7.0026736550   -0.0003093500   -0.0002128500    0.0000569300
    6    3.7043610480    3.5203044570    7.0455392980   -0.0003340100   -0.0004018000    0.0006065100
    6    3.7277627590    4.9514224180    7.3376937280    0.0000321500   -0.0001908700    0.0001343300
    6    2.4241782190    5.7040469520    7.3376937280   -0.0001813700   -0.0000675900    0.0001343300
    6    2.4598883240    7.1438797400    7.1060065370   -0.0001173500   -0.0001996900    0.0006726300
    6    1.2222371170    7.8291610590    7.0179946510    0.0000071800   -0.0001134200    0.0000992000
    6    1.2284133890    9.2419275360    6.9971749460   -0.0001029500   -0.0005181600   -0.0003879200
    6   -0.0000061520    9.9459666550    6.9999711790   -0.0079758300    0.0130900000   -0.0008220400
    6    8.6134668800    0.7104376070    6.9999711790    0.0026876600   -0.0000383000    0.0001470400
    6    7.3813159760    1.4206250140    7.0043053270    0.0000500100   -0.0000097000   -0.0004180200
    6    7.3838077310    2.8401254310    7.0112876720    0.0000842000    0.0002491500   -0.0007979500
    6    6.1635329190    3.5526954810    7.0182768910    0.0001372500   -0.0003948300    0.0000320300
    6    6.1691431230    4.9730790850    7.0179946510   -0.0001018200   -0.0000504900    0.0000992000
    6    4.9568339060    5.7022539990    7.1060065370   -0.0001142600   -0.0002014700    0.0006726300
    6    4.9353167710    7.0923901170    7.0843021010    0.0000882900   -0.0000567700    0.0002265000
    6    3.6745344930    7.8203027650    7.0843021010   -0.0000933100    0.0000480700    0.0002265000
    6    3.6898833850    9.2400862040    7.0182636190    0.0000182400   -0.0000987400    0.0001802100
    6    2.4609861430    9.9459666550    6.9999711790   -0.0003124900    0.0080976400    0.0015127300
    6   11.0744468710    0.7104376070    6.9999711790   -0.0690851600   -0.0676839500   -0.0369139200
    6    9.8439568750    1.4208539020    6.9999711790    0.0001834000   -0.0036809800   -0.0045696000
    6    9.8439507230    2.8416971470    6.9999711790   -0.0123195100   -0.0063475300    0.0060042500
    6    8.6205875480    3.5513561900    7.0075202580   -0.0000119000   -0.0000784600   -0.0001263400
    6    8.6134545760    4.9729779990    6.9999711790    0.0153241900   -0.0003622700   -0.0008220400
    6    7.3895472160    5.6847898170    6.9971749460   -0.0003972700   -0.0003482400   -0.0003879200
    6    7.3829584280    7.1042588520    6.9999711790    0.0071690100    0.0037781900    0.0015127300
    6    6.1572114240    7.8155743610    7.0182636190   -0.0000946300   -0.0000335700    0.0001802100
    6    6.1524622800    9.2355397040    6.9999711790    0.0665961900   -0.0028125300    0.0019842500
    6    4.9219661330    9.9459666550    6.9999711790   -0.0357338200    0.0562677200    0.0019842500
    8    3.0551745340    5.2917150520    8.5985747680    0.0001504900    0.0002606600   -0.0000419700
    8    0.6519249450    1.1291666000    8.3452510830    0.0001614200    0.0002796000   -0.0001451100
 FRAMES
1      0.0000000000    0.0000000000    0.0000000000     12.3048999510    0.0000000000    0.0000000000
1      0.0000000000    0.0000000000    0.0000000000     -6.1524499750   10.6563509800    0.0000000000
1      0.0000000000    0.0000000000    0.0000000000      0.0000000000    0.0000000000   13.9999983580
1      0.0000000000    0.0000000000   13.9999983580     12.3048999510    0.0000000000   13.9999983580
1      0.0000000000    0.0000000000   13.9999983580     -6.1524499750   10.6563509800   13.9999983580
1     -6.1524499750   10.6563509800    0.0000000000      6.1524499760   10.6563509800    0.0000000000
1     -6.1524499750   10.6563509800    0.0000000000     -6.1524499750   10.6563509800   13.9999983580
1     -6.1524499750   10.6563509800   13.9999983580      6.1524499760   10.6563509800   13.9999983580
1     12.3048999510    0.0000000000    0.0000000000      6.1524499760   10.6563509800    0.0000000000
1     12.3048999510    0.0000000000    0.0000000000     12.3048999510    0.0000000000   13.9999983580
1     12.3048999510    0.0000000000   13.9999983580      6.1524499760   10.6563509800   13.9999983580
1      6.1524499760   10.6563509800    0.0000000000      6.1524499760   10.6563509800   13.9999983580
