 INFO
nunit      1    1    1
unit   cell
celltype   primcell
shape   parapipedal
 END_INFO
 DIM-GROUP
           3           9
 PRIMVEC
   12.3048999510    0.0000000000    0.0000000000
   -6.1524499750   10.6563509800    0.0000000000
    0.0000000000    0.0000000000   13.9999983580
 CONVVEC
   12.3048999510    0.0000000000    0.0000000000
   -6.1524499750   10.6563509800    0.0000000000
    0.0000000000    0.0000000000   13.9999983580
 PRIMCOORD
          50           1
  6      1.2304969040     0.7104417950     6.9999711790     0.0000135400     0.0000064400     0.0000000000
  6      0.0000061590     1.4208557240     6.9999711790     0.0000000000     0.0000213800     0.0000000000
  6      0.0000000000     2.8417040520     6.9999711790     0.0000000000     0.0000011000     0.0000000000
  6     -1.2304873060     3.5521307580     6.9999711790    -0.0000068600     0.0000109100     0.0000000000
  6     -1.2304930710     4.9729841590     6.9999711790     0.0000054800    -0.0000030200     0.0000000000
  6     -2.4609832570     5.6834109280     6.9999711790     0.0000013500     0.0000111300     0.0000000000
  6     -2.4609900800     7.1042666950     6.9999711790     0.0000163600    -0.0000053500     0.0000000000
  6     -3.6914791890     7.8146936030     6.9999711790     0.0000117700     0.0000027600     0.0000000000
  6     -3.6914846770     9.2355436040     6.9999711790     0.0000232400    -0.0000217500     0.0000000000
  6     -4.9219715290     9.9459624670     6.9999711790     0.0000135400    -0.0000064400     0.0000000000
  6      3.6914808940     0.7104425840     6.9999711790     0.0000181500     0.0000031000     0.0000000000
  6      2.4609899080     1.4208500010     6.9999711790     0.0000232400     0.0000217500     0.0000000000
  6      2.4609953960     2.8417000030     6.9999711790     0.0000117700    -0.0000027600     0.0000000000
  6      1.2304873060     3.5521307580     6.9999711790     0.0000068600     0.0000109100     0.0000000000
  6      1.2304930710     4.9729841590     6.9999711790    -0.0000054800    -0.0000030200     0.0000000000
  6     -0.0000061520     5.6834087860     6.9999711790     0.0000000000     0.0000117200     0.0000000000
  6      0.0000000060     7.1042639130     6.9999711790     0.0000000000     0.0000094000     0.0000000000
  6     -1.2305035670     7.8146908320     6.9999711790     0.0000125500     0.0000113600     0.0000000000
  6     -1.2304991500     9.2355425810     6.9999711790     0.0000132300    -0.0000190900     0.0000000000
  6     -2.4609998440     9.9459616780     6.9999711790     0.0000181500    -0.0000031000     0.0000000000
  6      6.1524745910     0.7104427760     6.9999711790     0.0000000000     0.0000094400     0.0000000000
  6      4.9219754350     1.4208510240     6.9999711790     0.0000132300     0.0000190900     0.0000000000
  6      4.9219833230     2.8417027730     6.9999711790     0.0000125500    -0.0000113600     0.0000000000
  6      3.6914845050     3.5521269110     6.9999711790     0.0000163600     0.0000053500     0.0000000000
  6      3.6914913400     4.9729826770     6.9999711790     0.0000013500    -0.0000111300     0.0000000000
  6      2.4609832450     5.6834109280     6.9999711790    -0.0000013500     0.0000111300     0.0000000000
  6      2.4609900800     7.1042666950     6.9999711790    -0.0000163600    -0.0000053500     0.0000000000
  6      1.2304912620     7.8146908320     6.9999711790    -0.0000125500     0.0000113600     0.0000000000
  6      1.2304991500     9.2355425810     6.9999711790    -0.0000132300    -0.0000190900     0.0000000000
  6     -0.0000061590     9.9459614860     6.9999711790     0.0000000000    -0.0000094400     0.0000000000
  6      8.6134682770     0.7104425840     6.9999711790    -0.0000181500     0.0000031000     0.0000000000
  6      7.3829737350     1.4208510240     6.9999711790    -0.0000132300     0.0000190900     0.0000000000
  6      7.3829781530     2.8417027730     6.9999711790    -0.0000125500    -0.0000113600     0.0000000000
  6      6.1524745790     3.5521296920     6.9999711790     0.0000000000    -0.0000094000     0.0000000000
  6      6.1524807380     4.9729848190     6.9999711790     0.0000000000    -0.0000117200     0.0000000000
  6      4.9219815140     5.6834094470     6.9999711790     0.0000054800     0.0000030200     0.0000000000
  6      4.9219872790     7.1042628480     6.9999711790    -0.0000068600    -0.0000109100     0.0000000000
  6      3.6914791890     7.8146936030     6.9999711790    -0.0000117700     0.0000027600     0.0000000000
  6      3.6914846770     9.2355436040     6.9999711790    -0.0000232400    -0.0000217500     0.0000000000
  6      2.4609875390     9.9459616780     6.9999711790    -0.0000181500    -0.0000031000     0.0000000000
  6     11.0744399610     0.7104417950     6.9999711790    -0.0000135400     0.0000064400     0.0000000000
  6      9.8439592630     1.4208500010     6.9999711790    -0.0000232400     0.0000217500     0.0000000000
  6      9.8439537750     2.8417000030     6.9999711790    -0.0000117700    -0.0000027600     0.0000000000
  6      8.6134646660     3.5521269110     6.9999711790    -0.0000163600     0.0000053500     0.0000000000
  6      8.6134578430     4.9729826770     6.9999711790    -0.0000013500    -0.0000111300     0.0000000000
  6      7.3829676570     5.6834094470     6.9999711790    -0.0000054800     0.0000030200     0.0000000000
  6      7.3829618920     7.1042628480     6.9999711790     0.0000068600    -0.0000109100     0.0000000000
  6      6.1524745850     7.8146895530     6.9999711790     0.0000000000    -0.0000011000     0.0000000000
  6      6.1524684270     9.2355378820     6.9999711790     0.0000000000    -0.0000213800     0.0000000000
  6      4.9219715290     9.9459624670     6.9999711790    -0.0000135400    -0.0000064400     0.0000000000
 CONVCOORD
          50           1
  6      1.2304969040     0.7104417950     6.9999711790
  6      0.0000061590     1.4208557240     6.9999711790
  6      0.0000000000     2.8417040520     6.9999711790
  6     -1.2304873060     3.5521307580     6.9999711790
  6     -1.2304930710     4.9729841590     6.9999711790
  6     -2.4609832570     5.6834109280     6.9999711790
  6     -2.4609900800     7.1042666950     6.9999711790
  6     -3.6914791890     7.8146936030     6.9999711790
  6     -3.6914846770     9.2355436040     6.9999711790
  6     -4.9219715290     9.9459624670     6.9999711790
  6      3.6914808940     0.7104425840     6.9999711790
  6      2.4609899080     1.4208500010     6.9999711790
  6      2.4609953960     2.8417000030     6.9999711790
  6      1.2304873060     3.5521307580     6.9999711790
  6      1.2304930710     4.9729841590     6.9999711790
  6     -0.0000061520     5.6834087860     6.9999711790
  6      0.0000000060     7.1042639130     6.9999711790
  6     -1.2305035670     7.8146908320     6.9999711790
  6     -1.2304991500     9.2355425810     6.9999711790
  6     -2.4609998440     9.9459616780     6.9999711790
  6      6.1524745910     0.7104427760     6.9999711790
  6      4.9219754350     1.4208510240     6.9999711790
  6      4.9219833230     2.8417027730     6.9999711790
  6      3.6914845050     3.5521269110     6.9999711790
  6      3.6914913400     4.9729826770     6.9999711790
  6      2.4609832450     5.6834109280     6.9999711790
  6      2.4609900800     7.1042666950     6.9999711790
  6      1.2304912620     7.8146908320     6.9999711790
  6      1.2304991500     9.2355425810     6.9999711790
  6     -0.0000061590     9.9459614860     6.9999711790
  6      8.6134682770     0.7104425840     6.9999711790
  6      7.3829737350     1.4208510240     6.9999711790
  6      7.3829781530     2.8417027730     6.9999711790
  6      6.1524745790     3.5521296920     6.9999711790
  6      6.1524807380     4.9729848190     6.9999711790
  6      4.9219815140     5.6834094470     6.9999711790
  6      4.9219872790     7.1042628480     6.9999711790
  6      3.6914791890     7.8146936030     6.9999711790
  6      3.6914846770     9.2355436040     6.9999711790
  6      2.4609875390     9.9459616780     6.9999711790
  6     11.0744399610     0.7104417950     6.9999711790
  6      9.8439592630     1.4208500010     6.9999711790
  6      9.8439537750     2.8417000030     6.9999711790
  6      8.6134646660     3.5521269110     6.9999711790
  6      8.6134578430     4.9729826770     6.9999711790
  6      7.3829676570     5.6834094470     6.9999711790
  6      7.3829618920     7.1042628480     6.9999711790
  6      6.1524745850     7.8146895530     6.9999711790
  6      6.1524684270     9.2355378820     6.9999711790
  6      4.9219715290     9.9459624670     6.9999711790
 RECIP-PRIMVEC
    0.0812684381    0.0469203765   -0.0000000000

    0.0000000000    0.0938407530    0.0000000000

    0.0000000000   -0.0000000000    0.0714285798

 RECIP-CONVVEC
    0.0812684381    0.0469203765   -0.0000000000

    0.0000000000    0.0938407530    0.0000000000

    0.0000000000   -0.0000000000    0.0714285798

 WIGNER-SEITZ-PRIMCELL
           4
  0.6152450E+01 -0.3552115E+01 -0.6999999E+01   0.1000000E+01 -0.0000000E+00 -0.0000000E+00
  0.6152450E+01  0.3552115E+01 -0.6999999E+01   0.1000000E+01 -0.0000000E+00 -0.0000000E+00
  0.6152450E+01  0.3552115E+01  0.6999999E+01   0.1000000E+01 -0.0000000E+00 -0.0000000E+00
  0.6152450E+01 -0.3552115E+01  0.6999999E+01   0.1000000E+01 -0.0000000E+00 -0.0000000E+00
           4
  0.6152450E+01 -0.3552115E+01  0.6999999E+01   0.5000002E+00 -0.8660253E+00 -0.1435454E-15
 -0.4999987E-09 -0.7104236E+01  0.6999999E+01   0.5000002E+00 -0.8660253E+00 -0.1435454E-15
 -0.5000007E-09 -0.7104236E+01 -0.6999999E+01   0.5000002E+00 -0.8660253E+00 -0.1435454E-15
  0.6152450E+01 -0.3552115E+01 -0.6999999E+01   0.5000002E+00 -0.8660253E+00 -0.1435454E-15
           4
  0.6152450E+01  0.3552115E+01 -0.6999999E+01   0.5000002E+00  0.8660253E+00 -0.7210489E-16
  0.4999987E-09  0.7104236E+01 -0.6999999E+01   0.5000002E+00  0.8660253E+00 -0.7210489E-16
  0.5000007E-09  0.7104236E+01  0.6999999E+01   0.5000002E+00  0.8660253E+00 -0.7210489E-16
  0.6152450E+01  0.3552115E+01  0.6999999E+01   0.5000002E+00  0.8660253E+00 -0.7210489E-16
           6
 -0.6152450E+01 -0.3552115E+01 -0.6999999E+01  -0.1625643E-15  0.0000000E+00 -0.1000000E+01
 -0.6152450E+01  0.3552115E+01 -0.6999999E+01  -0.1625643E-15  0.0000000E+00 -0.1000000E+01
  0.4999987E-09  0.7104236E+01 -0.6999999E+01  -0.1625643E-15  0.0000000E+00 -0.1000000E+01
  0.6152450E+01  0.3552115E+01 -0.6999999E+01  -0.1625643E-15  0.0000000E+00 -0.1000000E+01
  0.6152450E+01 -0.3552115E+01 -0.6999999E+01  -0.1625643E-15  0.0000000E+00 -0.1000000E+01
 -0.5000007E-09 -0.7104236E+01 -0.6999999E+01  -0.1625643E-15  0.0000000E+00 -0.1000000E+01
           6
 -0.5000007E-09 -0.7104236E+01  0.6999999E+01  -0.3251285E-15 -0.0000000E+00  0.1000000E+01
  0.6152450E+01 -0.3552115E+01  0.6999999E+01  -0.3251285E-15 -0.0000000E+00  0.1000000E+01
  0.6152450E+01  0.3552115E+01  0.6999999E+01  -0.3251285E-15 -0.0000000E+00  0.1000000E+01
  0.4999987E-09  0.7104236E+01  0.6999999E+01  -0.3251285E-15 -0.0000000E+00  0.1000000E+01
 -0.6152450E+01  0.3552115E+01  0.6999999E+01  -0.3251285E-15 -0.0000000E+00  0.1000000E+01
 -0.6152450E+01 -0.3552115E+01  0.6999999E+01  -0.3251285E-15 -0.0000000E+00  0.1000000E+01
           4
 -0.6152450E+01 -0.3552115E+01  0.6999999E+01  -0.5000002E+00 -0.8660253E+00  0.0000000E+00
 -0.6152450E+01 -0.3552115E+01 -0.6999999E+01  -0.5000002E+00 -0.8660253E+00  0.0000000E+00
 -0.5000007E-09 -0.7104236E+01 -0.6999999E+01  -0.5000002E+00 -0.8660253E+00  0.0000000E+00
 -0.4999997E-09 -0.7104236E+01  0.6999999E+01  -0.5000002E+00 -0.8660253E+00  0.0000000E+00
           4
  0.4999997E-09  0.7104236E+01  0.6999999E+01  -0.5000002E+00  0.8660253E+00  0.1428811E-15
  0.4999987E-09  0.7104236E+01 -0.6999999E+01  -0.5000002E+00  0.8660253E+00  0.1428811E-15
 -0.6152450E+01  0.3552115E+01 -0.6999999E+01  -0.5000002E+00  0.8660253E+00  0.1428811E-15
 -0.6152450E+01  0.3552115E+01  0.6999999E+01  -0.5000002E+00  0.8660253E+00  0.1428811E-15
           4
 -0.6152450E+01 -0.3552115E+01  0.6999999E+01  -0.1000000E+01  0.0000000E+00  0.6344132E-16
 -0.6152450E+01  0.3552115E+01  0.6999999E+01  -0.1000000E+01  0.0000000E+00  0.6344132E-16
 -0.6152450E+01  0.3552115E+01 -0.6999999E+01  -0.1000000E+01  0.0000000E+00  0.6344132E-16
 -0.6152450E+01 -0.3552115E+01 -0.6999999E+01  -0.1000000E+01  0.0000000E+00  0.6344132E-16
 WIGNER-SEITZ-PRIMCELL_END
 WIGNER-SEITZ-CONVCELL
           4
  0.6152450E+01 -0.3552115E+01 -0.6999999E+01   0.1000000E+01 -0.0000000E+00 -0.0000000E+00
  0.6152450E+01  0.3552115E+01 -0.6999999E+01   0.1000000E+01 -0.0000000E+00 -0.0000000E+00
  0.6152450E+01  0.3552115E+01  0.6999999E+01   0.1000000E+01 -0.0000000E+00 -0.0000000E+00
  0.6152450E+01 -0.3552115E+01  0.6999999E+01   0.1000000E+01 -0.0000000E+00 -0.0000000E+00
           4
  0.6152450E+01 -0.3552115E+01  0.6999999E+01   0.5000002E+00 -0.8660253E+00 -0.1435454E-15
 -0.4999987E-09 -0.7104236E+01  0.6999999E+01   0.5000002E+00 -0.8660253E+00 -0.1435454E-15
 -0.5000007E-09 -0.7104236E+01 -0.6999999E+01   0.5000002E+00 -0.8660253E+00 -0.1435454E-15
  0.6152450E+01 -0.3552115E+01 -0.6999999E+01   0.5000002E+00 -0.8660253E+00 -0.1435454E-15
           4
  0.6152450E+01  0.3552115E+01 -0.6999999E+01   0.5000002E+00  0.8660253E+00 -0.7210489E-16
  0.4999987E-09  0.7104236E+01 -0.6999999E+01   0.5000002E+00  0.8660253E+00 -0.7210489E-16
  0.5000007E-09  0.7104236E+01  0.6999999E+01   0.5000002E+00  0.8660253E+00 -0.7210489E-16
  0.6152450E+01  0.3552115E+01  0.6999999E+01   0.5000002E+00  0.8660253E+00 -0.7210489E-16
           6
 -0.6152450E+01 -0.3552115E+01 -0.6999999E+01  -0.1625643E-15  0.0000000E+00 -0.1000000E+01
 -0.6152450E+01  0.3552115E+01 -0.6999999E+01  -0.1625643E-15  0.0000000E+00 -0.1000000E+01
  0.4999987E-09  0.7104236E+01 -0.6999999E+01  -0.1625643E-15  0.0000000E+00 -0.1000000E+01
  0.6152450E+01  0.3552115E+01 -0.6999999E+01  -0.1625643E-15  0.0000000E+00 -0.1000000E+01
  0.6152450E+01 -0.3552115E+01 -0.6999999E+01  -0.1625643E-15  0.0000000E+00 -0.1000000E+01
 -0.5000007E-09 -0.7104236E+01 -0.6999999E+01  -0.1625643E-15  0.0000000E+00 -0.1000000E+01
           6
 -0.5000007E-09 -0.7104236E+01  0.6999999E+01  -0.3251285E-15 -0.0000000E+00  0.1000000E+01
  0.6152450E+01 -0.3552115E+01  0.6999999E+01  -0.3251285E-15 -0.0000000E+00  0.1000000E+01
  0.6152450E+01  0.3552115E+01  0.6999999E+01  -0.3251285E-15 -0.0000000E+00  0.1000000E+01
  0.4999987E-09  0.7104236E+01  0.6999999E+01  -0.3251285E-15 -0.0000000E+00  0.1000000E+01
 -0.6152450E+01  0.3552115E+01  0.6999999E+01  -0.3251285E-15 -0.0000000E+00  0.1000000E+01
 -0.6152450E+01 -0.3552115E+01  0.6999999E+01  -0.3251285E-15 -0.0000000E+00  0.1000000E+01
           4
 -0.6152450E+01 -0.3552115E+01  0.6999999E+01  -0.5000002E+00 -0.8660253E+00  0.0000000E+00
 -0.6152450E+01 -0.3552115E+01 -0.6999999E+01  -0.5000002E+00 -0.8660253E+00  0.0000000E+00
 -0.5000007E-09 -0.7104236E+01 -0.6999999E+01  -0.5000002E+00 -0.8660253E+00  0.0000000E+00
 -0.4999997E-09 -0.7104236E+01  0.6999999E+01  -0.5000002E+00 -0.8660253E+00  0.0000000E+00
           4
  0.4999997E-09  0.7104236E+01  0.6999999E+01  -0.5000002E+00  0.8660253E+00  0.1428811E-15
  0.4999987E-09  0.7104236E+01 -0.6999999E+01  -0.5000002E+00  0.8660253E+00  0.1428811E-15
 -0.6152450E+01  0.3552115E+01 -0.6999999E+01  -0.5000002E+00  0.8660253E+00  0.1428811E-15
 -0.6152450E+01  0.3552115E+01  0.6999999E+01  -0.5000002E+00  0.8660253E+00  0.1428811E-15
           4
 -0.6152450E+01 -0.3552115E+01  0.6999999E+01  -0.1000000E+01  0.0000000E+00  0.6344132E-16
 -0.6152450E+01  0.3552115E+01  0.6999999E+01  -0.1000000E+01  0.0000000E+00  0.6344132E-16
 -0.6152450E+01  0.3552115E+01 -0.6999999E+01  -0.1000000E+01  0.0000000E+00  0.6344132E-16
 -0.6152450E+01 -0.3552115E+01 -0.6999999E+01  -0.1000000E+01  0.0000000E+00  0.6344132E-16
 WIGNER-SEITZ-CONVCELL_END
 BRILLOUIN-ZONE-PRIMCELL
           4
 -0.5417897E-01  0.3813147E-11 -0.3571429E-01  -0.8660253E+00 -0.5000002E+00 -0.3418542E-26
 -0.2708947E-01 -0.4692038E-01 -0.3571429E-01  -0.8660253E+00 -0.5000002E+00 -0.3418542E-26
 -0.2708947E-01 -0.4692038E-01  0.3571429E-01  -0.8660253E+00 -0.5000002E+00 -0.3418542E-26
 -0.5417897E-01  0.3813141E-11  0.3571429E-01  -0.8660253E+00 -0.5000002E+00 -0.3418542E-26
           4
 -0.5417897E-01  0.3813147E-11  0.3571429E-01  -0.8660253E+00  0.5000002E+00  0.5603216E-16
 -0.2708947E-01  0.4692038E-01  0.3571429E-01  -0.8660253E+00  0.5000002E+00  0.5603216E-16
 -0.2708947E-01  0.4692038E-01 -0.3571429E-01  -0.8660253E+00  0.5000002E+00  0.5603216E-16
 -0.5417897E-01  0.3813147E-11 -0.3571429E-01  -0.8660253E+00  0.5000002E+00  0.5603216E-16
           4
 -0.2708947E-01 -0.4692038E-01 -0.3571429E-01  -0.3732495E-31 -0.1000000E+01  0.2793475E-16
  0.2708947E-01 -0.4692038E-01 -0.3571429E-01  -0.3732495E-31 -0.1000000E+01  0.2793475E-16
  0.2708947E-01 -0.4692038E-01  0.3571429E-01  -0.3732495E-31 -0.1000000E+01  0.2793475E-16
 -0.2708947E-01 -0.4692038E-01  0.3571429E-01  -0.3732495E-31 -0.1000000E+01  0.2793475E-16
           6
 -0.5417897E-01  0.3813147E-11 -0.3571429E-01   0.0000000E+00 -0.3411994E-15 -0.1000000E+01
 -0.2708947E-01  0.4692038E-01 -0.3571429E-01   0.0000000E+00 -0.3411994E-15 -0.1000000E+01
  0.2708947E-01  0.4692038E-01 -0.3571429E-01   0.0000000E+00 -0.3411994E-15 -0.1000000E+01
  0.5417897E-01 -0.3813153E-11 -0.3571429E-01   0.0000000E+00 -0.3411994E-15 -0.1000000E+01
  0.2708947E-01 -0.4692038E-01 -0.3571429E-01   0.0000000E+00 -0.3411994E-15 -0.1000000E+01
 -0.2708947E-01 -0.4692038E-01 -0.3571429E-01   0.0000000E+00 -0.3411994E-15 -0.1000000E+01
           6
 -0.2708947E-01 -0.4692038E-01  0.3571429E-01  -0.0000000E+00 -0.3411994E-15  0.1000000E+01
  0.2708947E-01 -0.4692038E-01  0.3571429E-01  -0.0000000E+00 -0.3411994E-15  0.1000000E+01
  0.5417897E-01 -0.3813144E-11  0.3571429E-01  -0.0000000E+00 -0.3411994E-15  0.1000000E+01
  0.2708947E-01  0.4692038E-01  0.3571429E-01  -0.0000000E+00 -0.3411994E-15  0.1000000E+01
 -0.2708947E-01  0.4692038E-01  0.3571429E-01  -0.0000000E+00 -0.3411994E-15  0.1000000E+01
 -0.5417897E-01  0.3813147E-11  0.3571429E-01  -0.0000000E+00 -0.3411994E-15  0.1000000E+01
           4
 -0.2708947E-01  0.4692038E-01  0.3571429E-01  -0.1280737E-15  0.1000000E+01  0.1120644E-15
  0.2708947E-01  0.4692038E-01  0.3571429E-01  -0.1280737E-15  0.1000000E+01  0.1120644E-15
  0.2708947E-01  0.4692038E-01 -0.3571429E-01  -0.1280737E-15  0.1000000E+01  0.1120644E-15
 -0.2708947E-01  0.4692038E-01 -0.3571429E-01  -0.1280737E-15  0.1000000E+01  0.1120644E-15
           4
  0.2708947E-01 -0.4692038E-01 -0.3571429E-01   0.8660253E+00 -0.5000002E+00 -0.4353846E-16
  0.5417897E-01 -0.3813147E-11 -0.3571429E-01   0.8660253E+00 -0.5000002E+00 -0.4353846E-16
  0.5417897E-01 -0.3813153E-11  0.3571429E-01   0.8660253E+00 -0.5000002E+00 -0.4353846E-16
  0.2708947E-01 -0.4692038E-01  0.3571429E-01   0.8660253E+00 -0.5000002E+00 -0.4353846E-16
           4
  0.2708947E-01  0.4692038E-01  0.3571429E-01   0.8660253E+00  0.5000002E+00 -0.1712065E-15
  0.5417897E-01 -0.3813134E-11  0.3571429E-01   0.8660253E+00  0.5000002E+00 -0.1712065E-15
  0.5417897E-01 -0.3813147E-11 -0.3571429E-01   0.8660253E+00  0.5000002E+00 -0.1712065E-15
  0.2708947E-01  0.4692038E-01 -0.3571429E-01   0.8660253E+00  0.5000002E+00 -0.1712065E-15
 BRILLOUIN-ZONE-PRIMCELL_END
 BRILLOUIN-ZONE-CONVCELL
           4
 -0.5417897E-01  0.3813147E-11 -0.3571429E-01  -0.8660253E+00 -0.5000002E+00 -0.3418542E-26
 -0.2708947E-01 -0.4692038E-01 -0.3571429E-01  -0.8660253E+00 -0.5000002E+00 -0.3418542E-26
 -0.2708947E-01 -0.4692038E-01  0.3571429E-01  -0.8660253E+00 -0.5000002E+00 -0.3418542E-26
 -0.5417897E-01  0.3813141E-11  0.3571429E-01  -0.8660253E+00 -0.5000002E+00 -0.3418542E-26
           4
 -0.5417897E-01  0.3813147E-11  0.3571429E-01  -0.8660253E+00  0.5000002E+00  0.5603216E-16
 -0.2708947E-01  0.4692038E-01  0.3571429E-01  -0.8660253E+00  0.5000002E+00  0.5603216E-16
 -0.2708947E-01  0.4692038E-01 -0.3571429E-01  -0.8660253E+00  0.5000002E+00  0.5603216E-16
 -0.5417897E-01  0.3813147E-11 -0.3571429E-01  -0.8660253E+00  0.5000002E+00  0.5603216E-16
           4
 -0.2708947E-01 -0.4692038E-01 -0.3571429E-01  -0.3732495E-31 -0.1000000E+01  0.2793475E-16
  0.2708947E-01 -0.4692038E-01 -0.3571429E-01  -0.3732495E-31 -0.1000000E+01  0.2793475E-16
  0.2708947E-01 -0.4692038E-01  0.3571429E-01  -0.3732495E-31 -0.1000000E+01  0.2793475E-16
 -0.2708947E-01 -0.4692038E-01  0.3571429E-01  -0.3732495E-31 -0.1000000E+01  0.2793475E-16
           6
 -0.5417897E-01  0.3813147E-11 -0.3571429E-01   0.0000000E+00 -0.3411994E-15 -0.1000000E+01
 -0.2708947E-01  0.4692038E-01 -0.3571429E-01   0.0000000E+00 -0.3411994E-15 -0.1000000E+01
  0.2708947E-01  0.4692038E-01 -0.3571429E-01   0.0000000E+00 -0.3411994E-15 -0.1000000E+01
  0.5417897E-01 -0.3813153E-11 -0.3571429E-01   0.0000000E+00 -0.3411994E-15 -0.1000000E+01
  0.2708947E-01 -0.4692038E-01 -0.3571429E-01   0.0000000E+00 -0.3411994E-15 -0.1000000E+01
 -0.2708947E-01 -0.4692038E-01 -0.3571429E-01   0.0000000E+00 -0.3411994E-15 -0.1000000E+01
           6
 -0.2708947E-01 -0.4692038E-01  0.3571429E-01  -0.0000000E+00 -0.3411994E-15  0.1000000E+01
  0.2708947E-01 -0.4692038E-01  0.3571429E-01  -0.0000000E+00 -0.3411994E-15  0.1000000E+01
  0.5417897E-01 -0.3813144E-11  0.3571429E-01  -0.0000000E+00 -0.3411994E-15  0.1000000E+01
  0.2708947E-01  0.4692038E-01  0.3571429E-01  -0.0000000E+00 -0.3411994E-15  0.1000000E+01
 -0.2708947E-01  0.4692038E-01  0.3571429E-01  -0.0000000E+00 -0.3411994E-15  0.1000000E+01
 -0.5417897E-01  0.3813147E-11  0.3571429E-01  -0.0000000E+00 -0.3411994E-15  0.1000000E+01
           4
 -0.2708947E-01  0.4692038E-01  0.3571429E-01  -0.1280737E-15  0.1000000E+01  0.1120644E-15
  0.2708947E-01  0.4692038E-01  0.3571429E-01  -0.1280737E-15  0.1000000E+01  0.1120644E-15
  0.2708947E-01  0.4692038E-01 -0.3571429E-01  -0.1280737E-15  0.1000000E+01  0.1120644E-15
 -0.2708947E-01  0.4692038E-01 -0.3571429E-01  -0.1280737E-15  0.1000000E+01  0.1120644E-15
           4
  0.2708947E-01 -0.4692038E-01 -0.3571429E-01   0.8660253E+00 -0.5000002E+00 -0.4353846E-16
  0.5417897E-01 -0.3813147E-11 -0.3571429E-01   0.8660253E+00 -0.5000002E+00 -0.4353846E-16
  0.5417897E-01 -0.3813153E-11  0.3571429E-01   0.8660253E+00 -0.5000002E+00 -0.4353846E-16
  0.2708947E-01 -0.4692038E-01  0.3571429E-01   0.8660253E+00 -0.5000002E+00 -0.4353846E-16
           4
  0.2708947E-01  0.4692038E-01  0.3571429E-01   0.8660253E+00  0.5000002E+00 -0.1712065E-15
  0.5417897E-01 -0.3813134E-11  0.3571429E-01   0.8660253E+00  0.5000002E+00 -0.1712065E-15
  0.5417897E-01 -0.3813147E-11 -0.3571429E-01   0.8660253E+00  0.5000002E+00 -0.1712065E-15
  0.2708947E-01  0.4692038E-01 -0.3571429E-01   0.8660253E+00  0.5000002E+00 -0.1712065E-15
 BRILLOUIN-ZONE-CONVCELL_END
 ATOMS
    6    1.2304969040    0.7104417950    6.9999711790    0.0000135400    0.0000064400    0.0000000000
    6    0.0000061590    1.4208557240    6.9999711790    0.0000000000    0.0000213800    0.0000000000
    6    0.0000000000    2.8417040520    6.9999711790    0.0000000000    0.0000011000    0.0000000000
    6   -1.2304873060    3.5521307580    6.9999711790   -0.0000068600    0.0000109100    0.0000000000
    6   -1.2304930710    4.9729841590    6.9999711790    0.0000054800   -0.0000030200    0.0000000000
    6   -2.4609832570    5.6834109280    6.9999711790    0.0000013500    0.0000111300    0.0000000000
    6   -2.4609900800    7.1042666950    6.9999711790    0.0000163600   -0.0000053500    0.0000000000
    6   -3.6914791890    7.8146936030    6.9999711790    0.0000117700    0.0000027600    0.0000000000
    6   -3.6914846770    9.2355436040    6.9999711790    0.0000232400   -0.0000217500    0.0000000000
    6   -4.9219715290    9.9459624670    6.9999711790    0.0000135400   -0.0000064400    0.0000000000
    6    3.6914808940    0.7104425840    6.9999711790    0.0000181500    0.0000031000    0.0000000000
    6    2.4609899080    1.4208500010    6.9999711790    0.0000232400    0.0000217500    0.0000000000
    6    2.4609953960    2.8417000030    6.9999711790    0.0000117700   -0.0000027600    0.0000000000
    6    1.2304873060    3.5521307580    6.9999711790    0.0000068600    0.0000109100    0.0000000000
    6    1.2304930710    4.9729841590    6.9999711790   -0.0000054800   -0.0000030200    0.0000000000
    6   -0.0000061520    5.6834087860    6.9999711790    0.0000000000    0.0000117200    0.0000000000
    6    0.0000000060    7.1042639130    6.9999711790    0.0000000000    0.0000094000    0.0000000000
    6   -1.2305035670    7.8146908320    6.9999711790    0.0000125500    0.0000113600    0.0000000000
    6   -1.2304991500    9.2355425810    6.9999711790    0.0000132300   -0.0000190900    0.0000000000
    6   -2.4609998440    9.9459616780    6.9999711790    0.0000181500   -0.0000031000    0.0000000000
    6    6.1524745910    0.7104427760    6.9999711790    0.0000000000    0.0000094400    0.0000000000
    6    4.9219754350    1.4208510240    6.9999711790    0.0000132300    0.0000190900    0.0000000000
    6    4.9219833230    2.8417027730    6.9999711790    0.0000125500   -0.0000113600    0.0000000000
    6    3.6914845050    3.5521269110    6.9999711790    0.0000163600    0.0000053500    0.0000000000
    6    3.6914913400    4.9729826770    6.9999711790    0.0000013500   -0.0000111300    0.0000000000
    6    2.4609832450    5.6834109280    6.9999711790   -0.0000013500    0.0000111300    0.0000000000
    6    2.4609900800    7.1042666950    6.9999711790   -0.0000163600   -0.0000053500    0.0000000000
    6    1.2304912620    7.8146908320    6.9999711790   -0.0000125500    0.0000113600    0.0000000000
    6    1.2304991500    9.2355425810    6.9999711790   -0.0000132300   -0.0000190900    0.0000000000
    6   -0.0000061590    9.9459614860    6.9999711790    0.0000000000   -0.0000094400    0.0000000000
    6    8.6134682770    0.7104425840    6.9999711790   -0.0000181500    0.0000031000    0.0000000000
    6    7.3829737350    1.4208510240    6.9999711790   -0.0000132300    0.0000190900    0.0000000000
    6    7.3829781530    2.8417027730    6.9999711790   -0.0000125500   -0.0000113600    0.0000000000
    6    6.1524745790    3.5521296920    6.9999711790    0.0000000000   -0.0000094000    0.0000000000
    6    6.1524807380    4.9729848190    6.9999711790    0.0000000000   -0.0000117200    0.0000000000
    6    4.9219815140    5.6834094470    6.9999711790    0.0000054800    0.0000030200    0.0000000000
    6    4.9219872790    7.1042628480    6.9999711790   -0.0000068600   -0.0000109100    0.0000000000
    6    3.6914791890    7.8146936030    6.9999711790   -0.0000117700    0.0000027600    0.0000000000
    6    3.6914846770    9.2355436040    6.9999711790   -0.0000232400   -0.0000217500    0.0000000000
    6    2.4609875390    9.9459616780    6.9999711790   -0.0000181500   -0.0000031000    0.0000000000
    6   11.0744399610    0.7104417950    6.9999711790   -0.0000135400    0.0000064400    0.0000000000
    6    9.8439592630    1.4208500010    6.9999711790   -0.0000232400    0.0000217500    0.0000000000
    6    9.8439537750    2.8417000030    6.9999711790   -0.0000117700   -0.0000027600    0.0000000000
    6    8.6134646660    3.5521269110    6.9999711790   -0.0000163600    0.0000053500    0.0000000000
    6    8.6134578430    4.9729826770    6.9999711790   -0.0000013500   -0.0000111300    0.0000000000
    6    7.3829676570    5.6834094470    6.9999711790   -0.0000054800    0.0000030200    0.0000000000
    6    7.3829618920    7.1042628480    6.9999711790    0.0000068600   -0.0000109100    0.0000000000
    6    6.1524745850    7.8146895530    6.9999711790    0.0000000000   -0.0000011000    0.0000000000
    6    6.1524684270    9.2355378820    6.9999711790    0.0000000000   -0.0000213800    0.0000000000
    6    4.9219715290    9.9459624670    6.9999711790   -0.0000135400   -0.0000064400    0.0000000000
 FRAMES
1      0.0000000000    0.0000000000    0.0000000000     12.3048999510    0.0000000000    0.0000000000
1      0.0000000000    0.0000000000    0.0000000000     -6.1524499750   10.6563509800    0.0000000000
1      0.0000000000    0.0000000000    0.0000000000      0.0000000000    0.0000000000   13.9999983580
1      0.0000000000    0.0000000000   13.9999983580     12.3048999510    0.0000000000   13.9999983580
1      0.0000000000    0.0000000000   13.9999983580     -6.1524499750   10.6563509800   13.9999983580
1     -6.1524499750   10.6563509800    0.0000000000      6.1524499760   10.6563509800    0.0000000000
1     -6.1524499750   10.6563509800    0.0000000000     -6.1524499750   10.6563509800   13.9999983580
1     -6.1524499750   10.6563509800   13.9999983580      6.1524499760   10.6563509800   13.9999983580
1     12.3048999510    0.0000000000    0.0000000000      6.1524499760   10.6563509800    0.0000000000
1     12.3048999510    0.0000000000    0.0000000000     12.3048999510    0.0000000000   13.9999983580
1     12.3048999510    0.0000000000   13.9999983580      6.1524499760   10.6563509800   13.9999983580
1      6.1524499760   10.6563509800    0.0000000000      6.1524499760   10.6563509800   13.9999983580
